*Heading
** Job name: ETubeNotFullyOverlapped Model name: Model-1
** Generated by: Abaqus/CAE 2023
*Preprint, echo=NO, model=NO, history=NO, contact=NO
**
** PARTS
**
*Part, name=Eulerian
*Node
      1,           0., 0.00549999997, 0.0500000007
      2, 0.00549999997,           0., 0.0500000007
      3, 0.00575000001,           0., 0.0500000007
      4,           0., 0.00575000001, 0.0500000007
      5,           0., 0.00499999989, 0.0500000007
      6, 0.00499999989,           0., 0.0500000007
      7,           0., 0.00449999981, 0.0500000007
      8, 0.00318198046, 0.00318198046, 0.0500000007
      9, 0.00449999981,           0., 0.0500000007
     10,           0.,           0., 0.0500000007
     11, 0.000860389555, 0.00543228583, 0.0500000007
     12, 0.0016995935, 0.00523081096, 0.0500000007
     13, 0.00249694777, 0.00490053603, 0.0500000007
     14, 0.0032328188, 0.00444959337, 0.0500000007
     15, 0.00388908735, 0.00388908735, 0.0500000007
     16, 0.00444959337, 0.0032328188, 0.0500000007
     17, 0.00490053603, 0.00249694777, 0.0500000007
     18, 0.00523081096, 0.0016995935, 0.0500000007
     19, 0.00543228583, 0.000860389555, 0.0500000007
     20, 0.00562500022,           0., 0.0500000007
** ... 7039 like lines cut
*Element, type=EC3D8R
   1,   30,   82,   11,    1,  211,  263,  192,  182
   2,   82,   83,   12,   11,  263,  264,  193,  192
   3,   83,   84,   13,   12,  264,  265,  194,  193
   4,   84,   85,   14,   13,  265,  266,  195,  194
   5,   85,   86,   15,   14,  266,  267,  196,  195
   6,   86,   87,   16,   15,  267,  268,  197,  196
   7,   87,   88,   17,   16,  268,  269,  198,  197
   8,   88,   89,   18,   17,  269,  270,  199,  198
   9,   89,   90,   19,   18,  270,  271,  200,  199
  10,   90,   20,    2,   19,  271,  201,  183,  200
  11,    4,   29,   82,   30,  185,  210,  263,  211
  12,   29,   28,   83,   82,  210,  209,  264,  263
  13,   28,   27,   84,   83,  209,  208,  265,  264
  14,   27,   26,   85,   84,  208,  207,  266,  265
  15,   26,   25,   86,   85,  207,  206,  267,  266
  16,   25,   24,   87,   86,  206,  205,  268,  267
  17,   24,   23,   88,   87,  205,  204,  269,  268
  18,   23,   22,   89,   88,  204,  203,  270,  269
  19,   22,   21,   90,   89,  203,  202,  271,  270
  20,   21,    3,   20,   90,  202,  184,  201,  271
** ... 5984 like lines cut
*Nset, nset=Set-1, generate
    1,  7059,     1
*Elset, elset=Set-1, generate
    1,  6004,     1
** Section: EulerianSection
*Eulerian Section, elset=Set-1, controls=EC-1
Fluid, fluid-1
*Surface, type=EULERIAN MATERIAL, name=fluid-1
fluid-1
*End Part
**  
*Part, name=Lagrangian
*Node
      1, 0.00600000005,           0., 0.0500000007
      2, 0.00549999997,           0., 0.0500000007
      3, 0.00499999989,           0., 0.0500000007
      4, 0.00600000005,           0.,  0.049342107
      5, 0.00549999997,           0.,  0.049342107
      6, 0.00499999989,           0.,  0.049342107
      7, 0.00600000005,           0., 0.0486842096
      8, 0.00549999997,           0., 0.0486842096
      9, 0.00499999989,           0., 0.0486842096
     10, 0.00600000005,           0., 0.0480263159
     11, 0.00549999997,           0., 0.0480263159
     12, 0.00499999989,           0., 0.0480263159
     13, 0.00600000005,           0., 0.0473684222
     14, 0.00549999997,           0., 0.0473684222
     15, 0.00499999989,           0., 0.0473684222
     16, 0.00600000005,           0., 0.0467105247
     17, 0.00549999997,           0., 0.0467105247
     18, 0.00499999989,           0., 0.0467105247
     19, 0.00600000005,           0.,  0.046052631
     20, 0.00549999997,           0.,  0.046052631
** ... 4831 like lines cut
*Element, type=C3D8R
   1,  232,  233,  236,  235,    1,    2,    5,    4
   2,  233,  234,  237,  236,    2,    3,    6,    5
   3,  235,  236,  239,  238,    4,    5,    8,    7
   4,  236,  237,  240,  239,    5,    6,    9,    8
   5,  238,  239,  242,  241,    7,    8,   11,   10
   6,  239,  240,  243,  242,    8,    9,   12,   11
   7,  241,  242,  245,  244,   10,   11,   14,   13
   8,  242,  243,  246,  245,   11,   12,   15,   14
   9,  244,  245,  248,  247,   13,   14,   17,   16
  10,  245,  246,  249,  248,   14,   15,   18,   17
  11,  247,  248,  251,  250,   16,   17,   20,   19
  12,  248,  249,  252,  251,   17,   18,   21,   20
  13,  250,  251,  254,  253,   19,   20,   23,   22
  14,  251,  252,  255,  254,   20,   21,   24,   23
  15,  253,  254,  257,  256,   22,   23,   26,   25
  16,  254,  255,  258,  257,   23,   24,   27,   26
  17,  256,  257,  260,  259,   25,   26,   29,   28
  18,  257,  258,  261,  260,   26,   27,   30,   29
  19,  259,  260,  263,  262,   28,   29,   32,   31
  20,  260,  261,  264,  263,   29,   30,   33,   32
** ... 3020 like lines cut
*Nset, nset=_PickedSet2, internal, generate
    1,  4851,     1
*Elset, elset=_PickedSet2, internal, generate
    1,  3040,     1
** Section: LagrangianSection
*Solid Section, elset=_PickedSet2, controls=EC-2, material=Solid
,
*End Part
**  
**
** ASSEMBLY
**
*Assembly, name=Assembly
**  
*Instance, name=Eulerian-1, part=Eulerian
*End Instance
**  
*Instance, name=Lagrangian-1, part=Lagrangian
*End Instance
**  
*Nset, nset=LagrangeInletNodes, instance=Lagrangian-1
  229,  230,  231,  460,  461,  462,  691,  692,  693,  922,  923,  924, 1153, 1154, 1155, 1384
 1385, 1386, 1615, 1616, 1617, 1846, 1847, 1848, 2077, 2078, 2079, 2308, 2309, 2310, 2539, 2540
 2541, 2770, 2771, 2772, 3001, 3002, 3003, 3232, 3233, 3234, 3463, 3464, 3465, 3694, 3695, 3696
 3925, 3926, 3927, 4156, 4157, 4158, 4387, 4388, 4389, 4618, 4619, 4620, 4849, 4850, 4851
*Nset, nset=LagrangeOutletNodes, instance=Lagrangian-1
    1,    2,    3,  232,  233,  234,  463,  464,  465,  694,  695,  696,  925,  926,  927, 1156
 1157, 1158, 1387, 1388, 1389, 1618, 1619, 1620, 1849, 1850, 1851, 2080, 2081, 2082, 2311, 2312
 2313, 2542, 2543, 2544, 2773, 2774, 2775, 3004, 3005, 3006, 3235, 3236, 3237, 3466, 3467, 3468
 3697, 3698, 3699, 3928, 3929, 3930, 4159, 4160, 4161, 4390, 4391, 4392, 4621, 4622, 4623
*Nset, nset=LagrangeXSymmNodes, instance=Lagrangian-1, generate
 4624,  4848,     1
*Nset, nset=LagrangeYSymmNodes, instance=Lagrangian-1, generate
   4,  228,    1
*Nset, nset=Wall, instance=Lagrangian-1, generate
    3,  4851,     3
*Elset, elset=Wall, instance=Lagrangian-1, generate
    2,  3040,     2
*Nset, nset=_PickedSet97, internal, instance=Eulerian-1, generate
    1,  7059,     1
*Elset, elset=_PickedSet97, internal, instance=Eulerian-1, generate
    1,  6004,     1
*Elset, elset=_Euler_CurvedOuter_S3, internal, instance=Eulerian-1
   11,   12,   13,   14,   15,   16,   17,   18,   19,   20,  169,  170,  171,  172,  173,  174
  175,  176,  177,  178,  327,  328,  329,  330,  331,  332,  333,  334,  335,  336,  485,  486
  487,  488,  489,  490,  491,  492,  493,  494,  643,  644,  645,  646,  647,  648,  649,  650
  651,  652,  801,  802,  803,  804,  805,  806,  807,  808,  809,  810,  959,  960,  961,  962
  963,  964,  965,  966,  967,  968, 1117, 1118, 1119, 1120, 1121, 1122, 1123, 1124, 1125, 1126
 1275, 1276, 1277, 1278, 1279, 1280, 1281, 1282, 1283, 1284, 1433, 1434, 1435, 1436, 1437, 1438
 1439, 1440, 1441, 1442, 1591, 1592, 1593, 1594, 1595, 1596, 1597, 1598, 1599, 1600, 1749, 1750
 1751, 1752, 1753, 1754, 1755, 1756, 1757, 1758, 1907, 1908, 1909, 1910, 1911, 1912, 1913, 1914
 1915, 1916, 2065, 2066, 2067, 2068, 2069, 2070, 2071, 2072, 2073, 2074, 2223, 2224, 2225, 2226
 2227, 2228, 2229, 2230, 2231, 2232, 2381, 2382, 2383, 2384, 2385, 2386, 2387, 2388, 2389, 2390
 2539, 2540, 2541, 2542, 2543, 2544, 2545, 2546, 2547, 2548, 2697, 2698, 2699, 2700, 2701, 2702
 2703, 2704, 2705, 2706, 2855, 2856, 2857, 2858, 2859, 2860, 2861, 2862, 2863, 2864, 3013, 3014
 3015, 3016, 3017, 3018, 3019, 3020, 3021, 3022, 3171, 3172, 3173, 3174, 3175, 3176, 3177, 3178
 3179, 3180, 3329, 3330, 3331, 3332, 3333, 3334, 3335, 3336, 3337, 3338, 3487, 3488, 3489, 3490
 3491, 3492, 3493, 3494, 3495, 3496, 3645, 3646, 3647, 3648, 3649, 3650, 3651, 3652, 3653, 3654
 3803, 3804, 3805, 3806, 3807, 3808, 3809, 3810, 3811, 3812, 3961, 3962, 3963, 3964, 3965, 3966
 3967, 3968, 3969, 3970, 4119, 4120, 4121, 4122, 4123, 4124, 4125, 4126, 4127, 4128, 4277, 4278
 4279, 4280, 4281, 4282, 4283, 4284, 4285, 4286, 4435, 4436, 4437, 4438, 4439, 4440, 4441, 4442
 4443, 4444, 4593, 4594, 4595, 4596, 4597, 4598, 4599, 4600, 4601, 4602, 4751, 4752, 4753, 4754
 4755, 4756, 4757, 4758, 4759, 4760, 4909, 4910, 4911, 4912, 4913, 4914, 4915, 4916, 4917, 4918
** ... 4 like lines cut
*Surface, type=ELEMENT, name=Euler_CurvedOuter
_Euler_CurvedOuter_S3, S3
*Elset, elset=_Inlet_S1, internal, instance=Eulerian-1, generate
   1,  158,    1
*Surface, type=ELEMENT, name=Inlet
_Inlet_S1, S1
*Elset, elset=_Outlet_S2, internal, instance=Eulerian-1, generate
 5847,  6004,     1
*Surface, type=ELEMENT, name=Outlet
_Outlet_S2, S2
*Elset, elset=__PickedSurf11_S6, internal, instance=Eulerian-1
    1,   11,   21,   31,   41,   51,   61,  159,  169,  179,  189,  199,  209,  219,  317,  327
  337,  347,  357,  367,  377,  475,  485,  495,  505,  515,  525,  535,  633,  643,  653,  663
  673,  683,  693,  791,  801,  811,  821,  831,  841,  851,  949,  959,  969,  979,  989,  999
 1009, 1107, 1117, 1127, 1137, 1147, 1157, 1167, 1265, 1275, 1285, 1295, 1305, 1315, 1325, 1423
 1433, 1443, 1453, 1463, 1473, 1483, 1581, 1591, 1601, 1611, 1621, 1631, 1641, 1739, 1749, 1759
 1769, 1779, 1789, 1799, 1897, 1907, 1917, 1927, 1937, 1947, 1957, 2055, 2065, 2075, 2085, 2095
 2105, 2115, 2213, 2223, 2233, 2243, 2253, 2263, 2273, 2371, 2381, 2391, 2401, 2411, 2421, 2431
 2529, 2539, 2549, 2559, 2569, 2579, 2589, 2687, 2697, 2707, 2717, 2727, 2737, 2747, 2845, 2855
 2865, 2875, 2885, 2895, 2905, 3003, 3013, 3023, 3033, 3043, 3053, 3063, 3161, 3171, 3181, 3191
 3201, 3211, 3221, 3319, 3329, 3339, 3349, 3359, 3369, 3379, 3477, 3487, 3497, 3507, 3517, 3527
 3537, 3635, 3645, 3655, 3665, 3675, 3685, 3695, 3793, 3803, 3813, 3823, 3833, 3843, 3853, 3951
 3961, 3971, 3981, 3991, 4001, 4011, 4109, 4119, 4129, 4139, 4149, 4159, 4169, 4267, 4277, 4287
 4297, 4307, 4317, 4327, 4425, 4435, 4445, 4455, 4465, 4475, 4485, 4583, 4593, 4603, 4613, 4623
 4633, 4643, 4741, 4751, 4761, 4771, 4781, 4791, 4801, 4899, 4909, 4919, 4929, 4939, 4949, 4959
 5057, 5067, 5077, 5087, 5097, 5107, 5117, 5215, 5225, 5235, 5245, 5255, 5265, 5275, 5373, 5383
 5393, 5403, 5413, 5423, 5433, 5531, 5541, 5551, 5561, 5571, 5581, 5591, 5689, 5699, 5709, 5719
 5729, 5739, 5749, 5847, 5857, 5867, 5877, 5887, 5897, 5907
*Elset, elset=__PickedSurf11_S3, internal, instance=Eulerian-1
  123,  133,  137,  138,  141,  143,  281,  291,  295,  296,  299,  301,  439,  449,  453,  454
  457,  459,  597,  607,  611,  612,  615,  617,  755,  765,  769,  770,  773,  775,  913,  923
  927,  928,  931,  933, 1071, 1081, 1085, 1086, 1089, 1091, 1229, 1239, 1243, 1244, 1247, 1249
 1387, 1397, 1401, 1402, 1405, 1407, 1545, 1555, 1559, 1560, 1563, 1565, 1703, 1713, 1717, 1718
 1721, 1723, 1861, 1871, 1875, 1876, 1879, 1881, 2019, 2029, 2033, 2034, 2037, 2039, 2177, 2187
 2191, 2192, 2195, 2197, 2335, 2345, 2349, 2350, 2353, 2355, 2493, 2503, 2507, 2508, 2511, 2513
 2651, 2661, 2665, 2666, 2669, 2671, 2809, 2819, 2823, 2824, 2827, 2829, 2967, 2977, 2981, 2982
 2985, 2987, 3125, 3135, 3139, 3140, 3143, 3145, 3283, 3293, 3297, 3298, 3301, 3303, 3441, 3451
 3455, 3456, 3459, 3461, 3599, 3609, 3613, 3614, 3617, 3619, 3757, 3767, 3771, 3772, 3775, 3777
 3915, 3925, 3929, 3930, 3933, 3935, 4073, 4083, 4087, 4088, 4091, 4093, 4231, 4241, 4245, 4246
 4249, 4251, 4389, 4399, 4403, 4404, 4407, 4409, 4547, 4557, 4561, 4562, 4565, 4567, 4705, 4715
 4719, 4720, 4723, 4725, 4863, 4873, 4877, 4878, 4881, 4883, 5021, 5031, 5035, 5036, 5039, 5041
 5179, 5189, 5193, 5194, 5197, 5199, 5337, 5347, 5351, 5352, 5355, 5357, 5495, 5505, 5509, 5510
 5513, 5515, 5653, 5663, 5667, 5668, 5671, 5673, 5811, 5821, 5825, 5826, 5829, 5831, 5969, 5979
 5983, 5984, 5987, 5989
*Elset, elset=__PickedSurf11_S5, internal, instance=Eulerian-1
  128,  130,  131,  149,  286,  288,  289,  307,  444,  446,  447,  465,  602,  604,  605,  623
  760,  762,  763,  781,  918,  920,  921,  939, 1076, 1078, 1079, 1097, 1234, 1236, 1237, 1255
 1392, 1394, 1395, 1413, 1550, 1552, 1553, 1571, 1708, 1710, 1711, 1729, 1866, 1868, 1869, 1887
 2024, 2026, 2027, 2045, 2182, 2184, 2185, 2203, 2340, 2342, 2343, 2361, 2498, 2500, 2501, 2519
 2656, 2658, 2659, 2677, 2814, 2816, 2817, 2835, 2972, 2974, 2975, 2993, 3130, 3132, 3133, 3151
 3288, 3290, 3291, 3309, 3446, 3448, 3449, 3467, 3604, 3606, 3607, 3625, 3762, 3764, 3765, 3783
 3920, 3922, 3923, 3941, 4078, 4080, 4081, 4099, 4236, 4238, 4239, 4257, 4394, 4396, 4397, 4415
 4552, 4554, 4555, 4573, 4710, 4712, 4713, 4731, 4868, 4870, 4871, 4889, 5026, 5028, 5029, 5047
 5184, 5186, 5187, 5205, 5342, 5344, 5345, 5363, 5500, 5502, 5503, 5521, 5658, 5660, 5661, 5679
 5816, 5818, 5819, 5837, 5974, 5976, 5977, 5995
*Surface, type=ELEMENT, name=_PickedSurf11, internal
__PickedSurf11_S6, S6
__PickedSurf11_S3, S3
__PickedSurf11_S5, S5
*Elset, elset=__PickedSurf12_S4, internal, instance=Eulerian-1
   10,   20,   30,   40,   50,   60,   70,   74,   75,  113,  168,  178,  188,  198,  208,  218
  228,  232,  233,  271,  326,  336,  346,  356,  366,  376,  386,  390,  391,  429,  484,  494
  504,  514,  524,  534,  544,  548,  549,  587,  642,  652,  662,  672,  682,  692,  702,  706
  707,  745,  800,  810,  820,  830,  840,  850,  860,  864,  865,  903,  958,  968,  978,  988
  998, 1008, 1018, 1022, 1023, 1061, 1116, 1126, 1136, 1146, 1156, 1166, 1176, 1180, 1181, 1219
 1274, 1284, 1294, 1304, 1314, 1324, 1334, 1338, 1339, 1377, 1432, 1442, 1452, 1462, 1472, 1482
 1492, 1496, 1497, 1535, 1590, 1600, 1610, 1620, 1630, 1640, 1650, 1654, 1655, 1693, 1748, 1758
 1768, 1778, 1788, 1798, 1808, 1812, 1813, 1851, 1906, 1916, 1926, 1936, 1946, 1956, 1966, 1970
 1971, 2009, 2064, 2074, 2084, 2094, 2104, 2114, 2124, 2128, 2129, 2167, 2222, 2232, 2242, 2252
 2262, 2272, 2282, 2286, 2287, 2325, 2380, 2390, 2400, 2410, 2420, 2430, 2440, 2444, 2445, 2483
 2538, 2548, 2558, 2568, 2578, 2588, 2598, 2602, 2603, 2641, 2696, 2706, 2716, 2726, 2736, 2746
 2756, 2760, 2761, 2799, 2854, 2864, 2874, 2884, 2894, 2904, 2914, 2918, 2919, 2957, 3012, 3022
 3032, 3042, 3052, 3062, 3072, 3076, 3077, 3115, 3170, 3180, 3190, 3200, 3210, 3220, 3230, 3234
 3235, 3273, 3328, 3338, 3348, 3358, 3368, 3378, 3388, 3392, 3393, 3431, 3486, 3496, 3506, 3516
 3526, 3536, 3546, 3550, 3551, 3589, 3644, 3654, 3664, 3674, 3684, 3694, 3704, 3708, 3709, 3747
 3802, 3812, 3822, 3832, 3842, 3852, 3862, 3866, 3867, 3905, 3960, 3970, 3980, 3990, 4000, 4010
 4020, 4024, 4025, 4063, 4118, 4128, 4138, 4148, 4158, 4168, 4178, 4182, 4183, 4221, 4276, 4286
 4296, 4306, 4316, 4326, 4336, 4340, 4341, 4379, 4434, 4444, 4454, 4464, 4474, 4484, 4494, 4498
 4499, 4537, 4592, 4602, 4612, 4622, 4632, 4642, 4652, 4656, 4657, 4695, 4750, 4760, 4770, 4780
 4790, 4800, 4810, 4814, 4815, 4853, 4908, 4918, 4928, 4938, 4948, 4958, 4968, 4972, 4973, 5011
** ... 4 like lines cut
*Elset, elset=__PickedSurf12_S6, internal, instance=Eulerian-1
   83,   84,   87,   91,   97,  241,  242,  245,  249,  255,  399,  400,  403,  407,  413,  557
  558,  561,  565,  571,  715,  716,  719,  723,  729,  873,  874,  877,  881,  887, 1031, 1032
 1035, 1039, 1045, 1189, 1190, 1193, 1197, 1203, 1347, 1348, 1351, 1355, 1361, 1505, 1506, 1509
 1513, 1519, 1663, 1664, 1667, 1671, 1677, 1821, 1822, 1825, 1829, 1835, 1979, 1980, 1983, 1987
 1993, 2137, 2138, 2141, 2145, 2151, 2295, 2296, 2299, 2303, 2309, 2453, 2454, 2457, 2461, 2467
 2611, 2612, 2615, 2619, 2625, 2769, 2770, 2773, 2777, 2783, 2927, 2928, 2931, 2935, 2941, 3085
 3086, 3089, 3093, 3099, 3243, 3244, 3247, 3251, 3257, 3401, 3402, 3405, 3409, 3415, 3559, 3560
 3563, 3567, 3573, 3717, 3718, 3721, 3725, 3731, 3875, 3876, 3879, 3883, 3889, 4033, 4034, 4037
 4041, 4047, 4191, 4192, 4195, 4199, 4205, 4349, 4350, 4353, 4357, 4363, 4507, 4508, 4511, 4515
 4521, 4665, 4666, 4669, 4673, 4679, 4823, 4824, 4827, 4831, 4837, 4981, 4982, 4985, 4989, 4995
 5139, 5140, 5143, 5147, 5153, 5297, 5298, 5301, 5305, 5311, 5455, 5456, 5459, 5463, 5469, 5613
 5614, 5617, 5621, 5627, 5771, 5772, 5775, 5779, 5785, 5929, 5930, 5933, 5937, 5943
*Elset, elset=__PickedSurf12_S3, internal, instance=Eulerian-1, generate
   90,  5936,   158
*Elset, elset=__PickedSurf12_S5, internal, instance=Eulerian-1, generate
   98,  5944,   158
*Surface, type=ELEMENT, name=_PickedSurf12, internal
__PickedSurf12_S4, S4
__PickedSurf12_S6, S6
__PickedSurf12_S3, S3
__PickedSurf12_S5, S5
*End Assembly
** 
** ELEMENT CONTROLS
** 
*Section Controls, name=EC-1, second order accuracy=YES
1., 1., 1.
*Section Controls, name=EC-2, hourglass=ENHANCED, second order accuracy=YES
1., 1., 1.
*Amplitude, name=Amp-1
             0.,              1.,           0.003,              1.,          0.0031,              0.,             0.1,              0.
*Amplitude, name=ZeroPWorkaround
             0.,              0.,              2.,              0.
** 
** MATERIALS
** 
*Material, name=Fluid
*Density
1000.,
*Viscosity
 0.003,
*Eos, type=USER, PROPERTIES=2
150, 7.15
*Material, name=Solid
*Density
1200.,
*Hyperelastic, neo hooke
57690.,0.
** 
** INTERACTION PROPERTIES
** 
*Surface Interaction, name=Contact
** 
** BOUNDARY CONDITIONS
** 
** Name: LagrangeSymmetry1_trueY Type: Symmetry/Antisymmetry/Encastre
*Boundary
LagrangeYSymmNodes, YSYMM
** Name: LagrangeSymmetry2_UserZ Type: Symmetry/Antisymmetry/Encastre
*Boundary
LagrangeXSymmNodes, XSYMM
** 
** PREDEFINED FIELDS
** 
** Name: MaterialFraction   Type: Material assignment
*Initial Conditions, type=VOLUME FRACTION
_PickedSet97, Eulerian-1.fluid-1, 1.
** ----------------------------------------------------------------
** 
** STEP: Step-1
** 
*Step, name=Step-1, nlgeom=YES
Pressure on
*Dynamic, Explicit
, 0.02
*Bulk Viscosity
0.06, 1.2
** 
** BOUNDARY CONDITIONS
** 
** Name: Euler_Inlet Type: Eulerian boundary
*Eulerian Boundary, inflow=FREE
Inlet
** Name: Euler_Outlet Type: Eulerian boundary
*Eulerian Boundary, outflow=ZERO PRESSURE
Outlet
** Name: LagrangeInlet Type: Symmetry/Antisymmetry/Encastre
*Boundary
LagrangeInletNodes, ENCASTRE
** Name: LagrangeOutlet Type: Symmetry/Antisymmetry/Encastre
*Boundary
LagrangeOutletNodes, ENCASTRE
** Name: Symmetry1 Type: Eulerian boundary
*Eulerian Boundary, inflow=NONE, outflow=NONE
_PickedSurf11
** Name: Symmetry2 Type: Eulerian boundary
*Eulerian Boundary, inflow=NONE, outflow=NONE
_PickedSurf12
** 
** LOADS
** 
** Name: PZeroOut   Type: Pressure
*Dsload, amplitude=ZeroPWorkaround
Outlet, P, 1.
** Name: Pressurein   Type: Pressure
*Dsload, amplitude=Amp-1
Inlet, P, 1333.3
** 
** INTERACTIONS
** 
** Interaction: Interaction
*Contact, op=NEW
*Contact Inclusions, ALL EXTERIOR
*Contact Property Assignment
 ,  , Contact
** 
** OUTPUT REQUESTS
** 
*Restart, write, number interval=1, time marks=NO
** 
** FIELD OUTPUT: F-Output-1
** 
*Output, field, number interval=100
*Node Output
A, RF, U, V
*Element Output, directions=YES
DENSITY, EVF, LE, MFL, P, PE, PEEQ, PEEQVAVG, PEVAVG, S, SVAVG
*Contact Output
CSTRESS, 
** 
** HISTORY OUTPUT: H-Output-1
** 
*Output, history, variable=PRESELECT
*End Step
