*Heading
 First Attempt at elastic tube benchmark
** Job name: ETubeEOverlapLargerOverlap Model name: Model-1
** Generated by: Abaqus/CAE 2023
*Preprint, echo=NO, model=NO, history=NO, contact=NO
**
** PARTS
**
*Part, name=Eulerian
*Node
      1, 0.00238198042, 0.00318198046,           0.
      2, -0.00079999998,           0.,           0.
      3, -0.00079999998, 0.00449999981,           0.
      4, -0.00079999998, 0.00650000013,           0.
      5, 0.0057000001,           0.,           0.
      6, 0.00520000001,           0.,           0.
      7, -0.00079999998, 0.00600000005,           0.
      8, 0.00469999993,           0.,           0.
      9, -0.00079999998, 0.00549999997,           0.
     10, 0.00419999985,           0.,           0.
     11, -0.00079999998, 0.00499999989,           0.
     12,       0.0037,           0.,           0.
     13, -0.00079999998, 0.00999999978,           0.
     14, 0.0092000002, 0.00999999978,           0.
     15, 0.0092000002,           0.,           0.
     16, 0.00206378242, 0.00286378246,           0.
     17, 0.00174558442, 0.00254558446,           0.
     18, 0.00142738631, 0.00222738646,           0.
     19, 0.00110918831, 0.00190918834,           0.
     20, 0.000790990249, 0.00159099023,           0.
** ... 26468 like lines cut
*Element, type=EC3D8R
    1,   154,   139,   151,   162,   498,   483,   495,   506
    2,   150,   149,    37,    36,   494,   493,   381,   380
    3,    21,   137,   142,    22,   365,   481,   486,   366
    4,   152,    25,     2,    24,   496,   369,   346,   368
    5,    25,   152,   140,    26,   369,   496,   484,   370
    6,   142,   137,   156,   168,   486,   481,   500,   512
    7,   165,   142,   168,   169,   509,   486,   512,   513
    8,    28,   144,   145,    29,   372,   488,   489,   373
    9,    20,    19,   138,   141,   364,   363,   482,   485
   10,    19,    18,   139,   138,   363,   362,   483,   482
   11,   162,   151,   167,   149,   506,   495,   511,   493
   12,   169,   140,   152,   165,   513,   484,   496,   509
   13,    26,   140,   143,    27,   370,   484,   487,   371
   14,    21,    20,   141,   137,   365,   364,   485,   481
   15,    29,   145,   146,    30,   373,   489,   490,   374
   16,   138,   155,   153,   141,   482,   499,   497,   485
   17,   157,   159,   148,   147,   501,   503,   492,   491
   18,    30,   146,   147,    31,   374,   490,   491,   375
   19,    31,   147,   148,    32,   375,   491,   492,   376
   20,    33,   166,    34,     3,   377,   510,   378,   347
** ... 23312 like lines cut
*Nset, nset=Set-1, generate
     1,  26488,      1
*Elset, elset=Set-1, generate
     1,  23332,      1
** Section: EulerianSection
*Eulerian Section, elset=Set-1, controls=EC-1
Fluid, fluid-1
*Surface, type=EULERIAN MATERIAL, name=fluid-1
fluid-1
*End Part
**  
*Part, name=Lagrangian
*Node
      1, 0.00600000005,           0., 0.0500000007
      2, 0.00549999997,           0., 0.0500000007
      3, 0.00499999989,           0., 0.0500000007
      4, 0.00600000005,           0.,  0.049342107
      5, 0.00549999997,           0.,  0.049342107
      6, 0.00499999989,           0.,  0.049342107
      7, 0.00600000005,           0., 0.0486842096
      8, 0.00549999997,           0., 0.0486842096
      9, 0.00499999989,           0., 0.0486842096
     10, 0.00600000005,           0., 0.0480263159
     11, 0.00549999997,           0., 0.0480263159
     12, 0.00499999989,           0., 0.0480263159
     13, 0.00600000005,           0., 0.0473684222
     14, 0.00549999997,           0., 0.0473684222
     15, 0.00499999989,           0., 0.0473684222
     16, 0.00600000005,           0., 0.0467105247
     17, 0.00549999997,           0., 0.0467105247
     18, 0.00499999989,           0., 0.0467105247
     19, 0.00600000005,           0.,  0.046052631
     20, 0.00549999997,           0.,  0.046052631
** ... 4831 like lines cut
*Element, type=C3D8R
   1,  232,  233,  236,  235,    1,    2,    5,    4
   2,  233,  234,  237,  236,    2,    3,    6,    5
   3,  235,  236,  239,  238,    4,    5,    8,    7
   4,  236,  237,  240,  239,    5,    6,    9,    8
   5,  238,  239,  242,  241,    7,    8,   11,   10
   6,  239,  240,  243,  242,    8,    9,   12,   11
   7,  241,  242,  245,  244,   10,   11,   14,   13
   8,  242,  243,  246,  245,   11,   12,   15,   14
   9,  244,  245,  248,  247,   13,   14,   17,   16
  10,  245,  246,  249,  248,   14,   15,   18,   17
  11,  247,  248,  251,  250,   16,   17,   20,   19
  12,  248,  249,  252,  251,   17,   18,   21,   20
  13,  250,  251,  254,  253,   19,   20,   23,   22
  14,  251,  252,  255,  254,   20,   21,   24,   23
  15,  253,  254,  257,  256,   22,   23,   26,   25
  16,  254,  255,  258,  257,   23,   24,   27,   26
  17,  256,  257,  260,  259,   25,   26,   29,   28
  18,  257,  258,  261,  260,   26,   27,   30,   29
  19,  259,  260,  263,  262,   28,   29,   32,   31
  20,  260,  261,  264,  263,   29,   30,   33,   32
** ... 3020 like lines cut
*Nset, nset=_PickedSet2, internal, generate
    1,  4851,     1
*Elset, elset=_PickedSet2, internal, generate
    1,  3040,     1
** Section: LagrangianSection
*Solid Section, elset=_PickedSet2, controls=EC-2, material=Solid
,
*End Part
**  
**
** ASSEMBLY
**
*Assembly, name=Assembly
**  
*Instance, name=Eulerian-1, part=Eulerian
          0.,           0.,        -0.05
*End Instance
**  
*Instance, name=Lagrangian-1, part=Lagrangian
     -0.0008,           0.,        -0.05
*End Instance
**  
*Nset, nset=LagrangeInletNodes, instance=Lagrangian-1
  229,  230,  231,  460,  461,  462,  691,  692,  693,  922,  923,  924, 1153, 1154, 1155, 1384
 1385, 1386, 1615, 1616, 1617, 1846, 1847, 1848, 2077, 2078, 2079, 2308, 2309, 2310, 2539, 2540
 2541, 2770, 2771, 2772, 3001, 3002, 3003, 3232, 3233, 3234, 3463, 3464, 3465, 3694, 3695, 3696
 3925, 3926, 3927, 4156, 4157, 4158, 4387, 4388, 4389, 4618, 4619, 4620, 4849, 4850, 4851
*Nset, nset=LagrangeOutletNodes, instance=Lagrangian-1
    1,    2,    3,  232,  233,  234,  463,  464,  465,  694,  695,  696,  925,  926,  927, 1156
 1157, 1158, 1387, 1388, 1389, 1618, 1619, 1620, 1849, 1850, 1851, 2080, 2081, 2082, 2311, 2312
 2313, 2542, 2543, 2544, 2773, 2774, 2775, 3004, 3005, 3006, 3235, 3236, 3237, 3466, 3467, 3468
 3697, 3698, 3699, 3928, 3929, 3930, 4159, 4160, 4161, 4390, 4391, 4392, 4621, 4622, 4623
*Nset, nset=LagrangeXSymmNodes, instance=Lagrangian-1, generate
 4624,  4848,     1
*Nset, nset=LagrangeYSymmNodes, instance=Lagrangian-1, generate
   4,  228,    1
*Nset, nset=_PickedSet51, internal, instance=Eulerian-1, generate
     1,  26488,      1
*Elset, elset=_PickedSet51, internal, instance=Eulerian-1, generate
     1,  23332,      1
*Elset, elset=_In_Outside_S1, internal, instance=Eulerian-1
  47,  48,  49,  50,  51,  52,  53,  54,  55,  56,  57,  58,  59,  60,  61,  62
  63,  64,  65,  66,  67,  68,  69,  70, 189, 190, 191, 192, 193, 194, 195, 196
 197, 198, 199, 200, 201, 202, 203, 204, 205, 206, 207, 208, 209, 210, 211, 212
 213, 214, 215, 216, 217, 218, 219, 220, 221, 222, 223, 224, 225, 226, 227, 228
 229, 230, 231, 232, 233, 234, 235, 236, 237, 238, 239, 240, 241, 242, 243, 244
 245, 246, 247, 248, 249, 250, 251, 252, 253, 254, 255, 256, 257, 258, 259, 260
 261, 262, 263, 264, 265, 266, 267, 268, 269, 270, 271, 272, 273, 274, 275, 276
 277, 278, 279, 280, 281, 282, 283, 284, 285, 286, 287, 288, 289, 290, 291, 292
 293, 294, 295, 296, 297, 298, 299, 300, 301, 302, 303, 304, 305, 306, 307
*Surface, type=ELEMENT, name=In_Outside
_In_Outside_S1, S1
*Elset, elset=_Outlet_S5, internal, instance=Eulerian-1
   192,   193,   200,   212,   214,   216,   222,   242,   247,   499,   500,   507,   519,   521,   523,   529
   549,   554,   806,   807,   814,   826,   828,   830,   836,   856,   861,  1113,  1114,  1121,  1133,  1135
  1137,  1143,  1163,  1168,  1420,  1421,  1428,  1440,  1442,  1444,  1450,  1470,  1475,  1727,  1728,  1735
  1747,  1749,  1751,  1757,  1777,  1782,  2034,  2035,  2042,  2054,  2056,  2058,  2064,  2084,  2089,  2341
  2342,  2349,  2361,  2363,  2365,  2371,  2391,  2396,  2648,  2649,  2656,  2668,  2670,  2672,  2678,  2698
  2703,  2955,  2956,  2963,  2975,  2977,  2979,  2985,  3005,  3010,  3262,  3263,  3270,  3282,  3284,  3286
  3292,  3312,  3317,  3569,  3570,  3577,  3589,  3591,  3593,  3599,  3619,  3624,  3876,  3877,  3884,  3896
  3898,  3900,  3906,  3926,  3931,  4183,  4184,  4191,  4203,  4205,  4207,  4213,  4233,  4238,  4490,  4491
  4498,  4510,  4512,  4514,  4520,  4540,  4545,  4797,  4798,  4805,  4817,  4819,  4821,  4827,  4847,  4852
  5104,  5105,  5112,  5124,  5126,  5128,  5134,  5154,  5159,  5411,  5412,  5419,  5431,  5433,  5435,  5441
  5461,  5466,  5718,  5719,  5726,  5738,  5740,  5742,  5748,  5768,  5773,  6025,  6026,  6033,  6045,  6047
  6049,  6055,  6075,  6080,  6332,  6333,  6340,  6352,  6354,  6356,  6362,  6382,  6387,  6639,  6640,  6647
  6659,  6661,  6663,  6669,  6689,  6694,  6946,  6947,  6954,  6966,  6968,  6970,  6976,  6996,  7001,  7253
  7254,  7261,  7273,  7275,  7277,  7283,  7303,  7308,  7560,  7561,  7568,  7580,  7582,  7584,  7590,  7610
  7615,  7867,  7868,  7875,  7887,  7889,  7891,  7897,  7917,  7922,  8174,  8175,  8182,  8194,  8196,  8198
  8204,  8224,  8229,  8481,  8482,  8489,  8501,  8503,  8505,  8511,  8531,  8536,  8788,  8789,  8796,  8808
  8810,  8812,  8818,  8838,  8843,  9095,  9096,  9103,  9115,  9117,  9119,  9125,  9145,  9150,  9402,  9403
  9410,  9422,  9424,  9426,  9432,  9452,  9457,  9709,  9710,  9717,  9729,  9731,  9733,  9739,  9759,  9764
 10016, 10017, 10024, 10036, 10038, 10040, 10046, 10066, 10071, 10323, 10324, 10331, 10343, 10345, 10347, 10353
 10373, 10378, 10630, 10631, 10638, 10650, 10652, 10654, 10660, 10680, 10685, 10937, 10938, 10945, 10957, 10959
** ... 23 like lines cut
*Elset, elset=_Outlet_S3, internal, instance=Eulerian-1
   197,   198,   206,   208,   209,   211,   218,   219,   238,   241,   504,   505,   513,   515,   516,   518
   525,   526,   545,   548,   811,   812,   820,   822,   823,   825,   832,   833,   852,   855,  1118,  1119
  1127,  1129,  1130,  1132,  1139,  1140,  1159,  1162,  1425,  1426,  1434,  1436,  1437,  1439,  1446,  1447
  1466,  1469,  1732,  1733,  1741,  1743,  1744,  1746,  1753,  1754,  1773,  1776,  2039,  2040,  2048,  2050
  2051,  2053,  2060,  2061,  2080,  2083,  2346,  2347,  2355,  2357,  2358,  2360,  2367,  2368,  2387,  2390
  2653,  2654,  2662,  2664,  2665,  2667,  2674,  2675,  2694,  2697,  2960,  2961,  2969,  2971,  2972,  2974
  2981,  2982,  3001,  3004,  3267,  3268,  3276,  3278,  3279,  3281,  3288,  3289,  3308,  3311,  3574,  3575
  3583,  3585,  3586,  3588,  3595,  3596,  3615,  3618,  3881,  3882,  3890,  3892,  3893,  3895,  3902,  3903
  3922,  3925,  4188,  4189,  4197,  4199,  4200,  4202,  4209,  4210,  4229,  4232,  4495,  4496,  4504,  4506
  4507,  4509,  4516,  4517,  4536,  4539,  4802,  4803,  4811,  4813,  4814,  4816,  4823,  4824,  4843,  4846
  5109,  5110,  5118,  5120,  5121,  5123,  5130,  5131,  5150,  5153,  5416,  5417,  5425,  5427,  5428,  5430
  5437,  5438,  5457,  5460,  5723,  5724,  5732,  5734,  5735,  5737,  5744,  5745,  5764,  5767,  6030,  6031
  6039,  6041,  6042,  6044,  6051,  6052,  6071,  6074,  6337,  6338,  6346,  6348,  6349,  6351,  6358,  6359
  6378,  6381,  6644,  6645,  6653,  6655,  6656,  6658,  6665,  6666,  6685,  6688,  6951,  6952,  6960,  6962
  6963,  6965,  6972,  6973,  6992,  6995,  7258,  7259,  7267,  7269,  7270,  7272,  7279,  7280,  7299,  7302
  7565,  7566,  7574,  7576,  7577,  7579,  7586,  7587,  7606,  7609,  7872,  7873,  7881,  7883,  7884,  7886
  7893,  7894,  7913,  7916,  8179,  8180,  8188,  8190,  8191,  8193,  8200,  8201,  8220,  8223,  8486,  8487
  8495,  8497,  8498,  8500,  8507,  8508,  8527,  8530,  8793,  8794,  8802,  8804,  8805,  8807,  8814,  8815
  8834,  8837,  9100,  9101,  9109,  9111,  9112,  9114,  9121,  9122,  9141,  9144,  9407,  9408,  9416,  9418
  9419,  9421,  9428,  9429,  9448,  9451,  9714,  9715,  9723,  9725,  9726,  9728,  9735,  9736,  9755,  9758
** ... 28 like lines cut
*Elset, elset=_Outlet_S4, internal, instance=Eulerian-1
   205,   249,   512,   556,   819,   863,  1126,  1170,  1433,  1477,  1740,  1784,  2047,  2091,  2354,  2398
  2661,  2705,  2968,  3012,  3275,  3319,  3582,  3626,  3889,  3933,  4196,  4240,  4503,  4547,  4810,  4854
  5117,  5161,  5424,  5468,  5731,  5775,  6038,  6082,  6345,  6389,  6652,  6696,  6959,  7003,  7266,  7310
  7573,  7617,  7880,  7924,  8187,  8231,  8494,  8538,  8801,  8845,  9108,  9152,  9415,  9459,  9722,  9766
 10029, 10073, 10336, 10380, 10643, 10687, 10950, 10994, 11257, 11301, 11564, 11608, 11871, 11915, 12178, 12222
 12485, 12529, 12792, 12836, 13099, 13143, 13406, 13450, 13713, 13757, 14020, 14064, 14327, 14371, 14634, 14678
 14941, 14985, 15248, 15292, 15555, 15599, 15862, 15906, 16169, 16213, 16476, 16520, 16783, 16827, 17090, 17134
 17397, 17441, 17704, 17748, 18011, 18055, 18318, 18362, 18625, 18669, 18932, 18976, 19239, 19283, 19546, 19590
 19853, 19897, 20160, 20204, 20467, 20511, 20774, 20818, 21081, 21125, 21388, 21432, 21695, 21739, 22002, 22046
 22309, 22353, 22616, 22660, 22923, 22967, 23230, 23274
*Elset, elset=_Outlet_S6, internal, instance=Eulerian-1
   198,   229,   231,   505,   536,   538,   812,   843,   845,  1119,  1150,  1152,  1426,  1457,  1459,  1733
  1764,  1766,  2040,  2071,  2073,  2347,  2378,  2380,  2654,  2685,  2687,  2961,  2992,  2994,  3268,  3299
  3301,  3575,  3606,  3608,  3882,  3913,  3915,  4189,  4220,  4222,  4496,  4527,  4529,  4803,  4834,  4836
  5110,  5141,  5143,  5417,  5448,  5450,  5724,  5755,  5757,  6031,  6062,  6064,  6338,  6369,  6371,  6645
  6676,  6678,  6952,  6983,  6985,  7259,  7290,  7292,  7566,  7597,  7599,  7873,  7904,  7906,  8180,  8211
  8213,  8487,  8518,  8520,  8794,  8825,  8827,  9101,  9132,  9134,  9408,  9439,  9441,  9715,  9746,  9748
 10022, 10053, 10055, 10329, 10360, 10362, 10636, 10667, 10669, 10943, 10974, 10976, 11250, 11281, 11283, 11557
 11588, 11590, 11864, 11895, 11897, 12171, 12202, 12204, 12478, 12509, 12511, 12785, 12816, 12818, 13092, 13123
 13125, 13399, 13430, 13432, 13706, 13737, 13739, 14013, 14044, 14046, 14320, 14351, 14353, 14627, 14658, 14660
 14934, 14965, 14967, 15241, 15272, 15274, 15548, 15579, 15581, 15855, 15886, 15888, 16162, 16193, 16195, 16469
 16500, 16502, 16776, 16807, 16809, 17083, 17114, 17116, 17390, 17421, 17423, 17697, 17728, 17730, 18004, 18035
 18037, 18311, 18342, 18344, 18618, 18649, 18651, 18925, 18956, 18958, 19232, 19263, 19265, 19539, 19570, 19572
 19846, 19877, 19879, 20153, 20184, 20186, 20460, 20491, 20493, 20767, 20798, 20800, 21074, 21105, 21107, 21381
 21412, 21414, 21688, 21719, 21721, 21995, 22026, 22028, 22302, 22333, 22335, 22609, 22640, 22642, 22916, 22947
 22949, 23223, 23254, 23256
*Elset, elset=_Outlet_S2, internal, instance=Eulerian-1, generate
 23026,  23332,      1
*Surface, type=ELEMENT, name=Outlet
_Outlet_S5, S5
_Outlet_S3, S3
_Outlet_S4, S4
_Outlet_S6, S6
_Outlet_S2, S2
*Elset, elset=_P_in__Inside_S1, internal, instance=Eulerian-1
   1,   2,   3,   4,   5,   6,   7,   8,   9,  10,  11,  12,  13,  14,  15,  16
  17,  18,  19,  20,  21,  22,  23,  24,  25,  26,  27,  28,  29,  30,  31,  32
  33,  34,  35,  36,  37,  38,  39,  40,  41,  42,  43,  44,  45,  46,  71,  72
  73,  74,  75,  76,  77,  78,  79,  80,  81,  82,  83,  84,  85,  86,  87,  88
  89,  90,  91,  92,  93,  94,  95,  96,  97,  98,  99, 100, 101, 102, 103, 104
 105, 106, 107, 108, 109, 110, 111, 112, 113, 114, 115, 116, 117, 118, 119, 120
 121, 122, 123, 124, 125, 126, 127, 128, 129, 130, 131, 132, 133, 134, 135, 136
 137, 138, 139, 140, 141, 142, 143, 144, 145, 146, 147, 148, 149, 150, 151, 152
 153, 154, 155, 156, 157, 158, 159, 160, 161, 162, 163, 164, 165, 166, 167, 168
 169, 170, 171, 172, 173, 174, 175, 176, 177, 178, 179, 180, 181, 182, 183, 184
 185, 186, 187, 188
*Surface, type=ELEMENT, name=P_in__Inside
_P_in__Inside_S1, S1
*Elset, elset=_Surf-8_S5, internal, instance=Eulerian-1
   192,   193,   200,   242,   499,   500,   507,   549,   806,   807,   814,   856,  1113,  1114,  1121,  1163
  1420,  1421,  1428,  1470,  1727,  1728,  1735,  1777,  2034,  2035,  2042,  2084,  2341,  2342,  2349,  2391
  2648,  2649,  2656,  2698,  2955,  2956,  2963,  3005,  3262,  3263,  3270,  3312,  3569,  3570,  3577,  3619
  3876,  3877,  3884,  3926,  4183,  4184,  4191,  4233,  4490,  4491,  4498,  4540,  4797,  4798,  4805,  4847
  5104,  5105,  5112,  5154,  5411,  5412,  5419,  5461,  5718,  5719,  5726,  5768,  6025,  6026,  6033,  6075
  6332,  6333,  6340,  6382,  6639,  6640,  6647,  6689,  6946,  6947,  6954,  6996,  7253,  7254,  7261,  7303
  7560,  7561,  7568,  7610,  7867,  7868,  7875,  7917,  8174,  8175,  8182,  8224,  8481,  8482,  8489,  8531
  8788,  8789,  8796,  8838,  9095,  9096,  9103,  9145,  9402,  9403,  9410,  9452,  9709,  9710,  9717,  9759
 10016, 10017, 10024, 10066, 10323, 10324, 10331, 10373, 10630, 10631, 10638, 10680, 10937, 10938, 10945, 10987
 11244, 11245, 11252, 11294, 11551, 11552, 11559, 11601, 11858, 11859, 11866, 11908, 12165, 12166, 12173, 12215
 12472, 12473, 12480, 12522, 12779, 12780, 12787, 12829, 13086, 13087, 13094, 13136, 13393, 13394, 13401, 13443
 13700, 13701, 13708, 13750, 14007, 14008, 14015, 14057, 14314, 14315, 14322, 14364, 14621, 14622, 14629, 14671
 14928, 14929, 14936, 14978, 15235, 15236, 15243, 15285, 15542, 15543, 15550, 15592, 15849, 15850, 15857, 15899
 16156, 16157, 16164, 16206, 16463, 16464, 16471, 16513, 16770, 16771, 16778, 16820, 17077, 17078, 17085, 17127
 17384, 17385, 17392, 17434, 17691, 17692, 17699, 17741, 17998, 17999, 18006, 18048, 18305, 18306, 18313, 18355
 18612, 18613, 18620, 18662, 18919, 18920, 18927, 18969, 19226, 19227, 19234, 19276, 19533, 19534, 19541, 19583
 19840, 19841, 19848, 19890, 20147, 20148, 20155, 20197, 20454, 20455, 20462, 20504, 20761, 20762, 20769, 20811
 21068, 21069, 21076, 21118, 21375, 21376, 21383, 21425, 21682, 21683, 21690, 21732, 21989, 21990, 21997, 22039
 22296, 22297, 22304, 22346, 22603, 22604, 22611, 22653, 22910, 22911, 22918, 22960, 23217, 23218, 23225, 23267
*Elset, elset=_Surf-8_S3, internal, instance=Eulerian-1
   198,   206,   208,   209,   238,   241,   505,   513,   515,   516,   545,   548,   812,   820,   822,   823
   852,   855,  1119,  1127,  1129,  1130,  1159,  1162,  1426,  1434,  1436,  1437,  1466,  1469,  1733,  1741
  1743,  1744,  1773,  1776,  2040,  2048,  2050,  2051,  2080,  2083,  2347,  2355,  2357,  2358,  2387,  2390
  2654,  2662,  2664,  2665,  2694,  2697,  2961,  2969,  2971,  2972,  3001,  3004,  3268,  3276,  3278,  3279
  3308,  3311,  3575,  3583,  3585,  3586,  3615,  3618,  3882,  3890,  3892,  3893,  3922,  3925,  4189,  4197
  4199,  4200,  4229,  4232,  4496,  4504,  4506,  4507,  4536,  4539,  4803,  4811,  4813,  4814,  4843,  4846
  5110,  5118,  5120,  5121,  5150,  5153,  5417,  5425,  5427,  5428,  5457,  5460,  5724,  5732,  5734,  5735
  5764,  5767,  6031,  6039,  6041,  6042,  6071,  6074,  6338,  6346,  6348,  6349,  6378,  6381,  6645,  6653
  6655,  6656,  6685,  6688,  6952,  6960,  6962,  6963,  6992,  6995,  7259,  7267,  7269,  7270,  7299,  7302
  7566,  7574,  7576,  7577,  7606,  7609,  7873,  7881,  7883,  7884,  7913,  7916,  8180,  8188,  8190,  8191
  8220,  8223,  8487,  8495,  8497,  8498,  8527,  8530,  8794,  8802,  8804,  8805,  8834,  8837,  9101,  9109
  9111,  9112,  9141,  9144,  9408,  9416,  9418,  9419,  9448,  9451,  9715,  9723,  9725,  9726,  9755,  9758
 10022, 10030, 10032, 10033, 10062, 10065, 10329, 10337, 10339, 10340, 10369, 10372, 10636, 10644, 10646, 10647
 10676, 10679, 10943, 10951, 10953, 10954, 10983, 10986, 11250, 11258, 11260, 11261, 11290, 11293, 11557, 11565
 11567, 11568, 11597, 11600, 11864, 11872, 11874, 11875, 11904, 11907, 12171, 12179, 12181, 12182, 12211, 12214
 12478, 12486, 12488, 12489, 12518, 12521, 12785, 12793, 12795, 12796, 12825, 12828, 13092, 13100, 13102, 13103
 13132, 13135, 13399, 13407, 13409, 13410, 13439, 13442, 13706, 13714, 13716, 13717, 13746, 13749, 14013, 14021
 14023, 14024, 14053, 14056, 14320, 14328, 14330, 14331, 14360, 14363, 14627, 14635, 14637, 14638, 14667, 14670
 14934, 14942, 14944, 14945, 14974, 14977, 15241, 15249, 15251, 15252, 15281, 15284, 15548, 15556, 15558, 15559
 15588, 15591, 15855, 15863, 15865, 15866, 15895, 15898, 16162, 16170, 16172, 16173, 16202, 16205, 16469, 16477
** ... 9 like lines cut
*Elset, elset=_Surf-8_S4, internal, instance=Eulerian-1, generate
   205,  23230,    307
*Elset, elset=_Surf-8_S6, internal, instance=Eulerian-1, generate
   229,  23254,    307
*Surface, type=ELEMENT, name=Surf-8
_Surf-8_S5, S5
_Surf-8_S3, S3
_Surf-8_S4, S4
_Surf-8_S6, S6
*Elset, elset=__PickedSurf11_S4, internal, instance=Eulerian-1
     4,    32,    82,    94,   130,   142,   311,   339,   389,   401,   437,   449,   618,   646,   696,   708
   744,   756,   925,   953,  1003,  1015,  1051,  1063,  1232,  1260,  1310,  1322,  1358,  1370,  1539,  1567
  1617,  1629,  1665,  1677,  1846,  1874,  1924,  1936,  1972,  1984,  2153,  2181,  2231,  2243,  2279,  2291
  2460,  2488,  2538,  2550,  2586,  2598,  2767,  2795,  2845,  2857,  2893,  2905,  3074,  3102,  3152,  3164
  3200,  3212,  3381,  3409,  3459,  3471,  3507,  3519,  3688,  3716,  3766,  3778,  3814,  3826,  3995,  4023
  4073,  4085,  4121,  4133,  4302,  4330,  4380,  4392,  4428,  4440,  4609,  4637,  4687,  4699,  4735,  4747
  4916,  4944,  4994,  5006,  5042,  5054,  5223,  5251,  5301,  5313,  5349,  5361,  5530,  5558,  5608,  5620
  5656,  5668,  5837,  5865,  5915,  5927,  5963,  5975,  6144,  6172,  6222,  6234,  6270,  6282,  6451,  6479
  6529,  6541,  6577,  6589,  6758,  6786,  6836,  6848,  6884,  6896,  7065,  7093,  7143,  7155,  7191,  7203
  7372,  7400,  7450,  7462,  7498,  7510,  7679,  7707,  7757,  7769,  7805,  7817,  7986,  8014,  8064,  8076
  8112,  8124,  8293,  8321,  8371,  8383,  8419,  8431,  8600,  8628,  8678,  8690,  8726,  8738,  8907,  8935
  8985,  8997,  9033,  9045,  9214,  9242,  9292,  9304,  9340,  9352,  9521,  9549,  9599,  9611,  9647,  9659
  9828,  9856,  9906,  9918,  9954,  9966, 10135, 10163, 10213, 10225, 10261, 10273, 10442, 10470, 10520, 10532
 10568, 10580, 10749, 10777, 10827, 10839, 10875, 10887, 11056, 11084, 11134, 11146, 11182, 11194, 11363, 11391
 11441, 11453, 11489, 11501, 11670, 11698, 11748, 11760, 11796, 11808, 11977, 12005, 12055, 12067, 12103, 12115
 12284, 12312, 12362, 12374, 12410, 12422, 12591, 12619, 12669, 12681, 12717, 12729, 12898, 12926, 12976, 12988
 13024, 13036, 13205, 13233, 13283, 13295, 13331, 13343, 13512, 13540, 13590, 13602, 13638, 13650, 13819, 13847
 13897, 13909, 13945, 13957, 14126, 14154, 14204, 14216, 14252, 14264, 14433, 14461, 14511, 14523, 14559, 14571
 14740, 14768, 14818, 14830, 14866, 14878, 15047, 15075, 15125, 15137, 15173, 15185, 15354, 15382, 15432, 15444
 15480, 15492, 15661, 15689, 15739, 15751, 15787, 15799, 15968, 15996, 16046, 16058, 16094, 16106, 16275, 16303
** ... 9 like lines cut
*Elset, elset=__PickedSurf11_S6, internal, instance=Eulerian-1
     5,     8,    13,    15,    18,    19,    20,    24,    47,    59,    95,   107,   312,   315,   320,   322
   325,   326,   327,   331,   354,   366,   402,   414,   619,   622,   627,   629,   632,   633,   634,   638
   661,   673,   709,   721,   926,   929,   934,   936,   939,   940,   941,   945,   968,   980,  1016,  1028
  1233,  1236,  1241,  1243,  1246,  1247,  1248,  1252,  1275,  1287,  1323,  1335,  1540,  1543,  1548,  1550
  1553,  1554,  1555,  1559,  1582,  1594,  1630,  1642,  1847,  1850,  1855,  1857,  1860,  1861,  1862,  1866
  1889,  1901,  1937,  1949,  2154,  2157,  2162,  2164,  2167,  2168,  2169,  2173,  2196,  2208,  2244,  2256
  2461,  2464,  2469,  2471,  2474,  2475,  2476,  2480,  2503,  2515,  2551,  2563,  2768,  2771,  2776,  2778
  2781,  2782,  2783,  2787,  2810,  2822,  2858,  2870,  3075,  3078,  3083,  3085,  3088,  3089,  3090,  3094
  3117,  3129,  3165,  3177,  3382,  3385,  3390,  3392,  3395,  3396,  3397,  3401,  3424,  3436,  3472,  3484
  3689,  3692,  3697,  3699,  3702,  3703,  3704,  3708,  3731,  3743,  3779,  3791,  3996,  3999,  4004,  4006
  4009,  4010,  4011,  4015,  4038,  4050,  4086,  4098,  4303,  4306,  4311,  4313,  4316,  4317,  4318,  4322
  4345,  4357,  4393,  4405,  4610,  4613,  4618,  4620,  4623,  4624,  4625,  4629,  4652,  4664,  4700,  4712
  4917,  4920,  4925,  4927,  4930,  4931,  4932,  4936,  4959,  4971,  5007,  5019,  5224,  5227,  5232,  5234
  5237,  5238,  5239,  5243,  5266,  5278,  5314,  5326,  5531,  5534,  5539,  5541,  5544,  5545,  5546,  5550
  5573,  5585,  5621,  5633,  5838,  5841,  5846,  5848,  5851,  5852,  5853,  5857,  5880,  5892,  5928,  5940
  6145,  6148,  6153,  6155,  6158,  6159,  6160,  6164,  6187,  6199,  6235,  6247,  6452,  6455,  6460,  6462
  6465,  6466,  6467,  6471,  6494,  6506,  6542,  6554,  6759,  6762,  6767,  6769,  6772,  6773,  6774,  6778
  6801,  6813,  6849,  6861,  7066,  7069,  7074,  7076,  7079,  7080,  7081,  7085,  7108,  7120,  7156,  7168
  7373,  7376,  7381,  7383,  7386,  7387,  7388,  7392,  7415,  7427,  7463,  7475,  7680,  7683,  7688,  7690
  7693,  7694,  7695,  7699,  7722,  7734,  7770,  7782,  7987,  7990,  7995,  7997,  8000,  8001,  8002,  8006
** ... 37 like lines cut
*Elset, elset=__PickedSurf11_S3, internal, instance=Eulerian-1
   195,   204,   260,   502,   511,   567,   809,   818,   874,  1116,  1125,  1181,  1423,  1432,  1488,  1730
  1739,  1795,  2037,  2046,  2102,  2344,  2353,  2409,  2651,  2660,  2716,  2958,  2967,  3023,  3265,  3274
  3330,  3572,  3581,  3637,  3879,  3888,  3944,  4186,  4195,  4251,  4493,  4502,  4558,  4800,  4809,  4865
  5107,  5116,  5172,  5414,  5423,  5479,  5721,  5730,  5786,  6028,  6037,  6093,  6335,  6344,  6400,  6642
  6651,  6707,  6949,  6958,  7014,  7256,  7265,  7321,  7563,  7572,  7628,  7870,  7879,  7935,  8177,  8186
  8242,  8484,  8493,  8549,  8791,  8800,  8856,  9098,  9107,  9163,  9405,  9414,  9470,  9712,  9721,  9777
 10019, 10028, 10084, 10326, 10335, 10391, 10633, 10642, 10698, 10940, 10949, 11005, 11247, 11256, 11312, 11554
 11563, 11619, 11861, 11870, 11926, 12168, 12177, 12233, 12475, 12484, 12540, 12782, 12791, 12847, 13089, 13098
 13154, 13396, 13405, 13461, 13703, 13712, 13768, 14010, 14019, 14075, 14317, 14326, 14382, 14624, 14633, 14689
 14931, 14940, 14996, 15238, 15247, 15303, 15545, 15554, 15610, 15852, 15861, 15917, 16159, 16168, 16224, 16466
 16475, 16531, 16773, 16782, 16838, 17080, 17089, 17145, 17387, 17396, 17452, 17694, 17703, 17759, 18001, 18010
 18066, 18308, 18317, 18373, 18615, 18624, 18680, 18922, 18931, 18987, 19229, 19238, 19294, 19536, 19545, 19601
 19843, 19852, 19908, 20150, 20159, 20215, 20457, 20466, 20522, 20764, 20773, 20829, 21071, 21080, 21136, 21378
 21387, 21443, 21685, 21694, 21750, 21992, 22001, 22057, 22299, 22308, 22364, 22606, 22615, 22671, 22913, 22922
 22978, 23220, 23229, 23285
*Elset, elset=__PickedSurf11_S5, internal, instance=Eulerian-1
   201,   202,   205,   508,   509,   512,   815,   816,   819,  1122,  1123,  1126,  1429,  1430,  1433,  1736
  1737,  1740,  2043,  2044,  2047,  2350,  2351,  2354,  2657,  2658,  2661,  2964,  2965,  2968,  3271,  3272
  3275,  3578,  3579,  3582,  3885,  3886,  3889,  4192,  4193,  4196,  4499,  4500,  4503,  4806,  4807,  4810
  5113,  5114,  5117,  5420,  5421,  5424,  5727,  5728,  5731,  6034,  6035,  6038,  6341,  6342,  6345,  6648
  6649,  6652,  6955,  6956,  6959,  7262,  7263,  7266,  7569,  7570,  7573,  7876,  7877,  7880,  8183,  8184
  8187,  8490,  8491,  8494,  8797,  8798,  8801,  9104,  9105,  9108,  9411,  9412,  9415,  9718,  9719,  9722
 10025, 10026, 10029, 10332, 10333, 10336, 10639, 10640, 10643, 10946, 10947, 10950, 11253, 11254, 11257, 11560
 11561, 11564, 11867, 11868, 11871, 12174, 12175, 12178, 12481, 12482, 12485, 12788, 12789, 12792, 13095, 13096
 13099, 13402, 13403, 13406, 13709, 13710, 13713, 14016, 14017, 14020, 14323, 14324, 14327, 14630, 14631, 14634
 14937, 14938, 14941, 15244, 15245, 15248, 15551, 15552, 15555, 15858, 15859, 15862, 16165, 16166, 16169, 16472
 16473, 16476, 16779, 16780, 16783, 17086, 17087, 17090, 17393, 17394, 17397, 17700, 17701, 17704, 18007, 18008
 18011, 18314, 18315, 18318, 18621, 18622, 18625, 18928, 18929, 18932, 19235, 19236, 19239, 19542, 19543, 19546
 19849, 19850, 19853, 20156, 20157, 20160, 20463, 20464, 20467, 20770, 20771, 20774, 21077, 21078, 21081, 21384
 21385, 21388, 21691, 21692, 21695, 21998, 21999, 22002, 22305, 22306, 22309, 22612, 22613, 22616, 22919, 22920
 22923, 23226, 23227, 23230
*Surface, type=ELEMENT, name=_PickedSurf11, internal
__PickedSurf11_S4, S4
__PickedSurf11_S6, S6
__PickedSurf11_S3, S3
__PickedSurf11_S5, S5
*Elset, elset=__PickedSurf12_S4, internal, instance=Eulerian-1
    58,    70,   106,   118,   160,   222,   365,   377,   413,   425,   467,   529,   672,   684,   720,   732
   774,   836,   979,   991,  1027,  1039,  1081,  1143,  1286,  1298,  1334,  1346,  1388,  1450,  1593,  1605
  1641,  1653,  1695,  1757,  1900,  1912,  1948,  1960,  2002,  2064,  2207,  2219,  2255,  2267,  2309,  2371
  2514,  2526,  2562,  2574,  2616,  2678,  2821,  2833,  2869,  2881,  2923,  2985,  3128,  3140,  3176,  3188
  3230,  3292,  3435,  3447,  3483,  3495,  3537,  3599,  3742,  3754,  3790,  3802,  3844,  3906,  4049,  4061
  4097,  4109,  4151,  4213,  4356,  4368,  4404,  4416,  4458,  4520,  4663,  4675,  4711,  4723,  4765,  4827
  4970,  4982,  5018,  5030,  5072,  5134,  5277,  5289,  5325,  5337,  5379,  5441,  5584,  5596,  5632,  5644
  5686,  5748,  5891,  5903,  5939,  5951,  5993,  6055,  6198,  6210,  6246,  6258,  6300,  6362,  6505,  6517
  6553,  6565,  6607,  6669,  6812,  6824,  6860,  6872,  6914,  6976,  7119,  7131,  7167,  7179,  7221,  7283
  7426,  7438,  7474,  7486,  7528,  7590,  7733,  7745,  7781,  7793,  7835,  7897,  8040,  8052,  8088,  8100
  8142,  8204,  8347,  8359,  8395,  8407,  8449,  8511,  8654,  8666,  8702,  8714,  8756,  8818,  8961,  8973
  9009,  9021,  9063,  9125,  9268,  9280,  9316,  9328,  9370,  9432,  9575,  9587,  9623,  9635,  9677,  9739
  9882,  9894,  9930,  9942,  9984, 10046, 10189, 10201, 10237, 10249, 10291, 10353, 10496, 10508, 10544, 10556
 10598, 10660, 10803, 10815, 10851, 10863, 10905, 10967, 11110, 11122, 11158, 11170, 11212, 11274, 11417, 11429
 11465, 11477, 11519, 11581, 11724, 11736, 11772, 11784, 11826, 11888, 12031, 12043, 12079, 12091, 12133, 12195
 12338, 12350, 12386, 12398, 12440, 12502, 12645, 12657, 12693, 12705, 12747, 12809, 12952, 12964, 13000, 13012
 13054, 13116, 13259, 13271, 13307, 13319, 13361, 13423, 13566, 13578, 13614, 13626, 13668, 13730, 13873, 13885
 13921, 13933, 13975, 14037, 14180, 14192, 14228, 14240, 14282, 14344, 14487, 14499, 14535, 14547, 14589, 14651
 14794, 14806, 14842, 14854, 14896, 14958, 15101, 15113, 15149, 15161, 15203, 15265, 15408, 15420, 15456, 15468
 15510, 15572, 15715, 15727, 15763, 15775, 15817, 15879, 16022, 16034, 16070, 16082, 16124, 16186, 16329, 16341
** ... 9 like lines cut
*Elset, elset=__PickedSurf12_S6, internal, instance=Eulerian-1
    71,    83,   119,   131,   223,   224,   225,   226,   232,   378,   390,   426,   438,   530,   531,   532
   533,   539,   685,   697,   733,   745,   837,   838,   839,   840,   846,   992,  1004,  1040,  1052,  1144
  1145,  1146,  1147,  1153,  1299,  1311,  1347,  1359,  1451,  1452,  1453,  1454,  1460,  1606,  1618,  1654
  1666,  1758,  1759,  1760,  1761,  1767,  1913,  1925,  1961,  1973,  2065,  2066,  2067,  2068,  2074,  2220
  2232,  2268,  2280,  2372,  2373,  2374,  2375,  2381,  2527,  2539,  2575,  2587,  2679,  2680,  2681,  2682
  2688,  2834,  2846,  2882,  2894,  2986,  2987,  2988,  2989,  2995,  3141,  3153,  3189,  3201,  3293,  3294
  3295,  3296,  3302,  3448,  3460,  3496,  3508,  3600,  3601,  3602,  3603,  3609,  3755,  3767,  3803,  3815
  3907,  3908,  3909,  3910,  3916,  4062,  4074,  4110,  4122,  4214,  4215,  4216,  4217,  4223,  4369,  4381
  4417,  4429,  4521,  4522,  4523,  4524,  4530,  4676,  4688,  4724,  4736,  4828,  4829,  4830,  4831,  4837
  4983,  4995,  5031,  5043,  5135,  5136,  5137,  5138,  5144,  5290,  5302,  5338,  5350,  5442,  5443,  5444
  5445,  5451,  5597,  5609,  5645,  5657,  5749,  5750,  5751,  5752,  5758,  5904,  5916,  5952,  5964,  6056
  6057,  6058,  6059,  6065,  6211,  6223,  6259,  6271,  6363,  6364,  6365,  6366,  6372,  6518,  6530,  6566
  6578,  6670,  6671,  6672,  6673,  6679,  6825,  6837,  6873,  6885,  6977,  6978,  6979,  6980,  6986,  7132
  7144,  7180,  7192,  7284,  7285,  7286,  7287,  7293,  7439,  7451,  7487,  7499,  7591,  7592,  7593,  7594
  7600,  7746,  7758,  7794,  7806,  7898,  7899,  7900,  7901,  7907,  8053,  8065,  8101,  8113,  8205,  8206
  8207,  8208,  8214,  8360,  8372,  8408,  8420,  8512,  8513,  8514,  8515,  8521,  8667,  8679,  8715,  8727
  8819,  8820,  8821,  8822,  8828,  8974,  8986,  9022,  9034,  9126,  9127,  9128,  9129,  9135,  9281,  9293
  9329,  9341,  9433,  9434,  9435,  9436,  9442,  9588,  9600,  9636,  9648,  9740,  9741,  9742,  9743,  9749
  9895,  9907,  9943,  9955, 10047, 10048, 10049, 10050, 10056, 10202, 10214, 10250, 10262, 10354, 10355, 10356
 10357, 10363, 10509, 10521, 10557, 10569, 10661, 10662, 10663, 10664, 10670, 10816, 10828, 10864, 10876, 10968
** ... 23 like lines cut
*Elset, elset=__PickedSurf12_S3, internal, instance=Eulerian-1
   150,   162,   163,   173,   457,   469,   470,   480,   764,   776,   777,   787,  1071,  1083,  1084,  1094
  1378,  1390,  1391,  1401,  1685,  1697,  1698,  1708,  1992,  2004,  2005,  2015,  2299,  2311,  2312,  2322
  2606,  2618,  2619,  2629,  2913,  2925,  2926,  2936,  3220,  3232,  3233,  3243,  3527,  3539,  3540,  3550
  3834,  3846,  3847,  3857,  4141,  4153,  4154,  4164,  4448,  4460,  4461,  4471,  4755,  4767,  4768,  4778
  5062,  5074,  5075,  5085,  5369,  5381,  5382,  5392,  5676,  5688,  5689,  5699,  5983,  5995,  5996,  6006
  6290,  6302,  6303,  6313,  6597,  6609,  6610,  6620,  6904,  6916,  6917,  6927,  7211,  7223,  7224,  7234
  7518,  7530,  7531,  7541,  7825,  7837,  7838,  7848,  8132,  8144,  8145,  8155,  8439,  8451,  8452,  8462
  8746,  8758,  8759,  8769,  9053,  9065,  9066,  9076,  9360,  9372,  9373,  9383,  9667,  9679,  9680,  9690
  9974,  9986,  9987,  9997, 10281, 10293, 10294, 10304, 10588, 10600, 10601, 10611, 10895, 10907, 10908, 10918
 11202, 11214, 11215, 11225, 11509, 11521, 11522, 11532, 11816, 11828, 11829, 11839, 12123, 12135, 12136, 12146
 12430, 12442, 12443, 12453, 12737, 12749, 12750, 12760, 13044, 13056, 13057, 13067, 13351, 13363, 13364, 13374
 13658, 13670, 13671, 13681, 13965, 13977, 13978, 13988, 14272, 14284, 14285, 14295, 14579, 14591, 14592, 14602
 14886, 14898, 14899, 14909, 15193, 15205, 15206, 15216, 15500, 15512, 15513, 15523, 15807, 15819, 15820, 15830
 16114, 16126, 16127, 16137, 16421, 16433, 16434, 16444, 16728, 16740, 16741, 16751, 17035, 17047, 17048, 17058
 17342, 17354, 17355, 17365, 17649, 17661, 17662, 17672, 17956, 17968, 17969, 17979, 18263, 18275, 18276, 18286
 18570, 18582, 18583, 18593, 18877, 18889, 18890, 18900, 19184, 19196, 19197, 19207, 19491, 19503, 19504, 19514
 19798, 19810, 19811, 19821, 20105, 20117, 20118, 20128, 20412, 20424, 20425, 20435, 20719, 20731, 20732, 20742
 21026, 21038, 21039, 21049, 21333, 21345, 21346, 21356, 21640, 21652, 21653, 21663, 21947, 21959, 21960, 21970
 22254, 22266, 22267, 22277, 22561, 22573, 22574, 22584, 22868, 22880, 22881, 22891, 23175, 23187, 23188, 23198
*Elset, elset=__PickedSurf12_S5, internal, instance=Eulerian-1
   154,   157,   158,   170,   174,   461,   464,   465,   477,   481,   768,   771,   772,   784,   788,  1075
  1078,  1079,  1091,  1095,  1382,  1385,  1386,  1398,  1402,  1689,  1692,  1693,  1705,  1709,  1996,  1999
  2000,  2012,  2016,  2303,  2306,  2307,  2319,  2323,  2610,  2613,  2614,  2626,  2630,  2917,  2920,  2921
  2933,  2937,  3224,  3227,  3228,  3240,  3244,  3531,  3534,  3535,  3547,  3551,  3838,  3841,  3842,  3854
  3858,  4145,  4148,  4149,  4161,  4165,  4452,  4455,  4456,  4468,  4472,  4759,  4762,  4763,  4775,  4779
  5066,  5069,  5070,  5082,  5086,  5373,  5376,  5377,  5389,  5393,  5680,  5683,  5684,  5696,  5700,  5987
  5990,  5991,  6003,  6007,  6294,  6297,  6298,  6310,  6314,  6601,  6604,  6605,  6617,  6621,  6908,  6911
  6912,  6924,  6928,  7215,  7218,  7219,  7231,  7235,  7522,  7525,  7526,  7538,  7542,  7829,  7832,  7833
  7845,  7849,  8136,  8139,  8140,  8152,  8156,  8443,  8446,  8447,  8459,  8463,  8750,  8753,  8754,  8766
  8770,  9057,  9060,  9061,  9073,  9077,  9364,  9367,  9368,  9380,  9384,  9671,  9674,  9675,  9687,  9691
  9978,  9981,  9982,  9994,  9998, 10285, 10288, 10289, 10301, 10305, 10592, 10595, 10596, 10608, 10612, 10899
 10902, 10903, 10915, 10919, 11206, 11209, 11210, 11222, 11226, 11513, 11516, 11517, 11529, 11533, 11820, 11823
 11824, 11836, 11840, 12127, 12130, 12131, 12143, 12147, 12434, 12437, 12438, 12450, 12454, 12741, 12744, 12745
 12757, 12761, 13048, 13051, 13052, 13064, 13068, 13355, 13358, 13359, 13371, 13375, 13662, 13665, 13666, 13678
 13682, 13969, 13972, 13973, 13985, 13989, 14276, 14279, 14280, 14292, 14296, 14583, 14586, 14587, 14599, 14603
 14890, 14893, 14894, 14906, 14910, 15197, 15200, 15201, 15213, 15217, 15504, 15507, 15508, 15520, 15524, 15811
 15814, 15815, 15827, 15831, 16118, 16121, 16122, 16134, 16138, 16425, 16428, 16429, 16441, 16445, 16732, 16735
 16736, 16748, 16752, 17039, 17042, 17043, 17055, 17059, 17346, 17349, 17350, 17362, 17366, 17653, 17656, 17657
 17669, 17673, 17960, 17963, 17964, 17976, 17980, 18267, 18270, 18271, 18283, 18287, 18574, 18577, 18578, 18590
 18594, 18881, 18884, 18885, 18897, 18901, 19188, 19191, 19192, 19204, 19208, 19495, 19498, 19499, 19511, 19515
** ... 4 like lines cut
*Surface, type=ELEMENT, name=_PickedSurf12, internal
__PickedSurf12_S4, S4
__PickedSurf12_S6, S6
__PickedSurf12_S3, S3
__PickedSurf12_S5, S5
*End Assembly
** 
** ELEMENT CONTROLS
** 
*Section Controls, name=EC-1, second order accuracy=YES
1., 1., 1.
*Section Controls, name=EC-2, hourglass=ENHANCED, second order accuracy=YES
1., 1., 1.
*Amplitude, name=Amp-1
             0.,              1.,           0.003,              1.,          0.0031,              0.,             0.1,              0.
*Amplitude, name=ZeroPressureWorkaround
             0.,              0.,              3.,              0.
** 
** MATERIALS
** 
*Material, name=Fluid
*Density
1000.,
*Viscosity
 0.003,
*Eos, type=USER, PROPERTIES=2
150, 7.15
*Material, name=Solid
*Density
1200.,
*Hyperelastic, neo hooke
57690.,0.
** 
** INTERACTION PROPERTIES
** 
*Surface Interaction, name=GeneralContact
*Surface Interaction, name=LinearContact
*Surface Behavior, pressure-overclosure=LINEAR
0.08, 
** 
** BOUNDARY CONDITIONS
** 
** Name: LagrangeSymmetry1_trueY Type: Symmetry/Antisymmetry/Encastre
*Boundary
LagrangeYSymmNodes, YSYMM
** Name: LagrangeSymmetry2_UserZ Type: Symmetry/Antisymmetry/Encastre
*Boundary
LagrangeXSymmNodes, XSYMM
** 
** PREDEFINED FIELDS
** 
** Name: MaterialFraction   Type: Material assignment
*Initial Conditions, type=VOLUME FRACTION
_PickedSet51, Eulerian-1.fluid-1, 1.
** ----------------------------------------------------------------
** 
** STEP: Step-1
** 
*Step, name=Step-1, nlgeom=YES
Pressure on
*Dynamic, Explicit
, 0.02
*Bulk Viscosity
0.06, 1.2
** 
** BOUNDARY CONDITIONS
** 
** Name: Euler_Inlet Type: Eulerian boundary
*Eulerian Boundary, inflow=FREE
P_in__Inside
** Name: Euler_Inlet_Outside Type: Eulerian boundary
*Eulerian Boundary, inflow=FREE, outflow=ZERO PRESSURE
In_Outside
** Name: Euler_Outlet Type: Eulerian boundary
*Eulerian Boundary, outflow=ZERO PRESSURE
Outlet
** Name: LagrangeInlet Type: Symmetry/Antisymmetry/Encastre
*Boundary
LagrangeInletNodes, ENCASTRE
** Name: LagrangeOutlet Type: Symmetry/Antisymmetry/Encastre
*Boundary
LagrangeOutletNodes, ENCASTRE
** Name: Symmetry1 Type: Eulerian boundary
*Eulerian Boundary, inflow=NONE, outflow=NONE
_PickedSurf11
** Name: Symmetry2 Type: Eulerian boundary
*Eulerian Boundary, inflow=NONE, outflow=NONE
_PickedSurf12
** 
** LOADS
** 
** Name: Pressurein   Type: Pressure
*Dsload, amplitude=Amp-1
P_in__Inside, P, 1333.33
** 
** INTERACTIONS
** 
** Interaction: Interaction
*Contact, op=NEW
*Contact Inclusions, ALL EXTERIOR
*Contact Property Assignment
 ,  , GeneralContact
** 
** OUTPUT REQUESTS
** 
*Restart, write, number interval=1, time marks=NO
** 
** FIELD OUTPUT: F-Output-1
** 
*Output, field, number interval=100
*Node Output
A, RF, U, V
*Element Output, directions=YES
DENSITY, EVF, LE, MFL, P, PE, PEEQ, PEEQVAVG, PEVAVG, S, SVAVG
*Contact Output
CSTRESS, 
** 
** HISTORY OUTPUT: H-Output-1
** 
*Output, history, variable=PRESELECT
*End Step
