*Heading
 First Attempt at elastic tube benchmark
** Job name: ETubeVoidTest3 Model name: Model-1
** Generated by: Abaqus/CAE 2023
*Preprint, echo=NO, model=NO, history=NO, contact=NO
**
** PARTS
**
*Part, name=Eulerian
*Node
      1, 0.00238198042, 0.00318198046,           0.
      2, -0.00079999998,           0.,           0.
      3, -0.00079999998, 0.00449999981,           0.
      4, -0.00079999998, 0.00650000013,           0.
      5, 0.0057000001,           0.,           0.
      6, 0.00520000001,           0.,           0.
      7, -0.00079999998, 0.00600000005,           0.
      8, 0.00469999993,           0.,           0.
      9, -0.00079999998, 0.00549999997,           0.
     10, 0.00419999985,           0.,           0.
     11, -0.00079999998, 0.00499999989,           0.
     12,       0.0037,           0.,           0.
     13, -0.00079999998, 0.00700000022,           0.
     14, 0.00620000018, 0.00700000022,           0.
     15, 0.00620000018,           0.,           0.
     16, 0.00206378242, 0.00286378246,           0.
     17, 0.00174558442, 0.00254558446,           0.
     18, 0.00142738631, 0.00222738646,           0.
     19, 0.00110918831, 0.00190918834,           0.
     20, 0.000790990249, 0.00159099023,           0.
** ... 18460 like lines cut
*Element, type=EC3D8R
    1,   137,   119,   133,   144,   377,   359,   373,   384
    2,   119,   123,    19,    18,   359,   363,   259,   258
    3,    21,   120,   122,    22,   261,   360,   362,   262
    4,   134,    25,     2,    24,   374,   265,   242,   264
    5,    25,   134,   121,    26,   265,   374,   361,   266
    6,   122,   120,   136,   150,   362,   360,   376,   390
    7,    26,   121,   125,    27,   266,   361,   365,   267
    8,    28,   126,   127,    29,   268,   366,   367,   269
    9,    20,    19,   123,   124,   260,   259,   363,   364
   10,   133,   119,    18,    17,   373,   359,   258,   257
   11,   144,   133,   149,   131,   384,   373,   389,   371
   12,   151,   121,   134,   147,   391,   361,   374,   387
   13,    23,    22,   122,   147,   263,   262,   362,   387
   14,    21,    20,   124,   120,   261,   260,   364,   360
   15,   124,   123,   138,   135,   364,   363,   378,   375
   16,   144,   142,   143,   137,   384,   382,   383,   377
   17,   129,   128,   139,   140,   369,   368,   379,   380
   18,    30,   128,   129,    31,   270,   368,   369,   271
   19,    31,   129,   130,    32,   271,   369,   370,   272
   20,    33,   148,    34,     3,   273,   388,   274,   243
** ... 16092 like lines cut
*Nset, nset=Set-1, generate
     1,  18480,      1
*Elset, elset=Set-1, generate
     1,  16112,      1
** Section: EulerianSection
*Eulerian Section, elset=Set-1, controls=EC-1
Fluid, fluid-1
*Surface, type=EULERIAN MATERIAL, name=fluid-1
fluid-1
*End Part
**  
*Part, name=Lagrangian
*Node
      1, 0.00600000005,           0., 0.0500000007
      2, 0.00549999997,           0., 0.0500000007
      3, 0.00499999989,           0., 0.0500000007
      4, 0.00600000005,           0.,  0.049342107
      5, 0.00549999997,           0.,  0.049342107
      6, 0.00499999989,           0.,  0.049342107
      7, 0.00600000005,           0., 0.0486842096
      8, 0.00549999997,           0., 0.0486842096
      9, 0.00499999989,           0., 0.0486842096
     10, 0.00600000005,           0., 0.0480263159
     11, 0.00549999997,           0., 0.0480263159
     12, 0.00499999989,           0., 0.0480263159
     13, 0.00600000005,           0., 0.0473684222
     14, 0.00549999997,           0., 0.0473684222
     15, 0.00499999989,           0., 0.0473684222
     16, 0.00600000005,           0., 0.0467105247
     17, 0.00549999997,           0., 0.0467105247
     18, 0.00499999989,           0., 0.0467105247
     19, 0.00600000005,           0.,  0.046052631
     20, 0.00549999997,           0.,  0.046052631
** ... 4831 like lines cut
*Element, type=C3D8R
   1,  232,  233,  236,  235,    1,    2,    5,    4
   2,  233,  234,  237,  236,    2,    3,    6,    5
   3,  235,  236,  239,  238,    4,    5,    8,    7
   4,  236,  237,  240,  239,    5,    6,    9,    8
   5,  238,  239,  242,  241,    7,    8,   11,   10
   6,  239,  240,  243,  242,    8,    9,   12,   11
   7,  241,  242,  245,  244,   10,   11,   14,   13
   8,  242,  243,  246,  245,   11,   12,   15,   14
   9,  244,  245,  248,  247,   13,   14,   17,   16
  10,  245,  246,  249,  248,   14,   15,   18,   17
  11,  247,  248,  251,  250,   16,   17,   20,   19
  12,  248,  249,  252,  251,   17,   18,   21,   20
  13,  250,  251,  254,  253,   19,   20,   23,   22
  14,  251,  252,  255,  254,   20,   21,   24,   23
  15,  253,  254,  257,  256,   22,   23,   26,   25
  16,  254,  255,  258,  257,   23,   24,   27,   26
  17,  256,  257,  260,  259,   25,   26,   29,   28
  18,  257,  258,  261,  260,   26,   27,   30,   29
  19,  259,  260,  263,  262,   28,   29,   32,   31
  20,  260,  261,  264,  263,   29,   30,   33,   32
** ... 3020 like lines cut
*Nset, nset=_PickedSet2, internal, generate
    1,  4851,     1
*Elset, elset=_PickedSet2, internal, generate
    1,  3040,     1
** Section: LagrangianSection
*Solid Section, elset=_PickedSet2, controls=EC-2, material=Solid
,
*End Part
**  
**
** ASSEMBLY
**
*Assembly, name=Assembly
**  
*Instance, name=Eulerian-1, part=Eulerian
          0.,           0.,        -0.05
*End Instance
**  
*Instance, name=Lagrangian-1, part=Lagrangian
     -0.0008,           0.,        -0.05
*End Instance
**  
*Nset, nset=LagrangeInletNodes, instance=Lagrangian-1
  229,  230,  231,  460,  461,  462,  691,  692,  693,  922,  923,  924, 1153, 1154, 1155, 1384
 1385, 1386, 1615, 1616, 1617, 1846, 1847, 1848, 2077, 2078, 2079, 2308, 2309, 2310, 2539, 2540
 2541, 2770, 2771, 2772, 3001, 3002, 3003, 3232, 3233, 3234, 3463, 3464, 3465, 3694, 3695, 3696
 3925, 3926, 3927, 4156, 4157, 4158, 4387, 4388, 4389, 4618, 4619, 4620, 4849, 4850, 4851
*Nset, nset=LagrangeOutletNodes, instance=Lagrangian-1
    1,    2,    3,  232,  233,  234,  463,  464,  465,  694,  695,  696,  925,  926,  927, 1156
 1157, 1158, 1387, 1388, 1389, 1618, 1619, 1620, 1849, 1850, 1851, 2080, 2081, 2082, 2311, 2312
 2313, 2542, 2543, 2544, 2773, 2774, 2775, 3004, 3005, 3006, 3235, 3236, 3237, 3466, 3467, 3468
 3697, 3698, 3699, 3928, 3929, 3930, 4159, 4160, 4161, 4390, 4391, 4392, 4621, 4622, 4623
*Nset, nset=LagrangeXSymmNodes, instance=Lagrangian-1, generate
 4624,  4848,     1
*Nset, nset=LagrangeYSymmNodes, instance=Lagrangian-1, generate
   4,  228,    1
*Nset, nset=_PickedSet51, internal, instance=Eulerian-1, generate
     1,  18480,      1
*Elset, elset=_PickedSet51, internal, instance=Eulerian-1, generate
     1,  16112,      1
*Nset, nset=_PickedSet89, internal, instance=Eulerian-1, generate
     1,  18480,      1
*Elset, elset=_PickedSet89, internal, instance=Eulerian-1, generate
     1,  16112,      1
*Elset, elset=_In_Outside_S1, internal, instance=Eulerian-1
  46,  47,  48,  49,  50,  51,  52,  53,  54,  55,  56,  57,  58,  59,  60,  61
  62,  63,  64,  65,  66,  67,  68,  69, 188, 189, 190, 191, 192, 193, 194, 195
 196, 197, 198, 199, 200, 201, 202, 203, 204, 205, 206, 207, 208, 209, 210, 211
 212,
*Surface, type=ELEMENT, name=In_Outside
_In_Outside_S1, S1
*Elset, elset=_OutFace_S2, internal, instance=Eulerian-1, generate
 15901,  16112,      1
*Surface, type=ELEMENT, name=OutFace
_OutFace_S2, S2
*Elset, elset=_Outlet_S5, internal, instance=Eulerian-1
   189,   191,   194,   202,   401,   403,   406,   414,   613,   615,   618,   626,   825,   827,   830,   838
  1037,  1039,  1042,  1050,  1249,  1251,  1254,  1262,  1461,  1463,  1466,  1474,  1673,  1675,  1678,  1686
  1885,  1887,  1890,  1898,  2097,  2099,  2102,  2110,  2309,  2311,  2314,  2322,  2521,  2523,  2526,  2534
  2733,  2735,  2738,  2746,  2945,  2947,  2950,  2958,  3157,  3159,  3162,  3170,  3369,  3371,  3374,  3382
  3581,  3583,  3586,  3594,  3793,  3795,  3798,  3806,  4005,  4007,  4010,  4018,  4217,  4219,  4222,  4230
  4429,  4431,  4434,  4442,  4641,  4643,  4646,  4654,  4853,  4855,  4858,  4866,  5065,  5067,  5070,  5078
  5277,  5279,  5282,  5290,  5489,  5491,  5494,  5502,  5701,  5703,  5706,  5714,  5913,  5915,  5918,  5926
  6125,  6127,  6130,  6138,  6337,  6339,  6342,  6350,  6549,  6551,  6554,  6562,  6761,  6763,  6766,  6774
  6973,  6975,  6978,  6986,  7185,  7187,  7190,  7198,  7397,  7399,  7402,  7410,  7609,  7611,  7614,  7622
  7821,  7823,  7826,  7834,  8033,  8035,  8038,  8046,  8245,  8247,  8250,  8258,  8457,  8459,  8462,  8470
  8669,  8671,  8674,  8682,  8881,  8883,  8886,  8894,  9093,  9095,  9098,  9106,  9305,  9307,  9310,  9318
  9517,  9519,  9522,  9530,  9729,  9731,  9734,  9742,  9941,  9943,  9946,  9954, 10153, 10155, 10158, 10166
 10365, 10367, 10370, 10378, 10577, 10579, 10582, 10590, 10789, 10791, 10794, 10802, 11001, 11003, 11006, 11014
 11213, 11215, 11218, 11226, 11425, 11427, 11430, 11438, 11637, 11639, 11642, 11650, 11849, 11851, 11854, 11862
 12061, 12063, 12066, 12074, 12273, 12275, 12278, 12286, 12485, 12487, 12490, 12498, 12697, 12699, 12702, 12710
 12909, 12911, 12914, 12922, 13121, 13123, 13126, 13134, 13333, 13335, 13338, 13346, 13545, 13547, 13550, 13558
 13757, 13759, 13762, 13770, 13969, 13971, 13974, 13982, 14181, 14183, 14186, 14194, 14393, 14395, 14398, 14406
 14605, 14607, 14610, 14618, 14817, 14819, 14822, 14830, 15029, 15031, 15034, 15042, 15241, 15243, 15246, 15254
 15453, 15455, 15458, 15466, 15665, 15667, 15670, 15678, 15877, 15879, 15882, 15890, 16089, 16091, 16094, 16102
*Elset, elset=_Outlet_S4, internal, instance=Eulerian-1
   192,   199,   404,   411,   616,   623,   828,   835,  1040,  1047,  1252,  1259,  1464,  1471,  1676,  1683
  1888,  1895,  2100,  2107,  2312,  2319,  2524,  2531,  2736,  2743,  2948,  2955,  3160,  3167,  3372,  3379
  3584,  3591,  3796,  3803,  4008,  4015,  4220,  4227,  4432,  4439,  4644,  4651,  4856,  4863,  5068,  5075
  5280,  5287,  5492,  5499,  5704,  5711,  5916,  5923,  6128,  6135,  6340,  6347,  6552,  6559,  6764,  6771
  6976,  6983,  7188,  7195,  7400,  7407,  7612,  7619,  7824,  7831,  8036,  8043,  8248,  8255,  8460,  8467
  8672,  8679,  8884,  8891,  9096,  9103,  9308,  9315,  9520,  9527,  9732,  9739,  9944,  9951, 10156, 10163
 10368, 10375, 10580, 10587, 10792, 10799, 11004, 11011, 11216, 11223, 11428, 11435, 11640, 11647, 11852, 11859
 12064, 12071, 12276, 12283, 12488, 12495, 12700, 12707, 12912, 12919, 13124, 13131, 13336, 13343, 13548, 13555
 13760, 13767, 13972, 13979, 14184, 14191, 14396, 14403, 14608, 14615, 14820, 14827, 15032, 15039, 15244, 15251
 15456, 15463, 15668, 15675, 15880, 15887, 16092, 16099
*Elset, elset=_Outlet_S6, internal, instance=Eulerian-1
   193,   198,   202,   405,   410,   414,   617,   622,   626,   829,   834,   838,  1041,  1046,  1050,  1253
  1258,  1262,  1465,  1470,  1474,  1677,  1682,  1686,  1889,  1894,  1898,  2101,  2106,  2110,  2313,  2318
  2322,  2525,  2530,  2534,  2737,  2742,  2746,  2949,  2954,  2958,  3161,  3166,  3170,  3373,  3378,  3382
  3585,  3590,  3594,  3797,  3802,  3806,  4009,  4014,  4018,  4221,  4226,  4230,  4433,  4438,  4442,  4645
  4650,  4654,  4857,  4862,  4866,  5069,  5074,  5078,  5281,  5286,  5290,  5493,  5498,  5502,  5705,  5710
  5714,  5917,  5922,  5926,  6129,  6134,  6138,  6341,  6346,  6350,  6553,  6558,  6562,  6765,  6770,  6774
  6977,  6982,  6986,  7189,  7194,  7198,  7401,  7406,  7410,  7613,  7618,  7622,  7825,  7830,  7834,  8037
  8042,  8046,  8249,  8254,  8258,  8461,  8466,  8470,  8673,  8678,  8682,  8885,  8890,  8894,  9097,  9102
  9106,  9309,  9314,  9318,  9521,  9526,  9530,  9733,  9738,  9742,  9945,  9950,  9954, 10157, 10162, 10166
 10369, 10374, 10378, 10581, 10586, 10590, 10793, 10798, 10802, 11005, 11010, 11014, 11217, 11222, 11226, 11429
 11434, 11438, 11641, 11646, 11650, 11853, 11858, 11862, 12065, 12070, 12074, 12277, 12282, 12286, 12489, 12494
 12498, 12701, 12706, 12710, 12913, 12918, 12922, 13125, 13130, 13134, 13337, 13342, 13346, 13549, 13554, 13558
 13761, 13766, 13770, 13973, 13978, 13982, 14185, 14190, 14194, 14397, 14402, 14406, 14609, 14614, 14618, 14821
 14826, 14830, 15033, 15038, 15042, 15245, 15250, 15254, 15457, 15462, 15466, 15669, 15674, 15678, 15881, 15886
 15890, 16093, 16098, 16102
*Elset, elset=_Outlet_S3, internal, instance=Eulerian-1
   188,   190,   203,   205,   207,   209,   210,   400,   402,   415,   417,   419,   421,   422,   612,   614
   627,   629,   631,   633,   634,   824,   826,   839,   841,   843,   845,   846,  1036,  1038,  1051,  1053
  1055,  1057,  1058,  1248,  1250,  1263,  1265,  1267,  1269,  1270,  1460,  1462,  1475,  1477,  1479,  1481
  1482,  1672,  1674,  1687,  1689,  1691,  1693,  1694,  1884,  1886,  1899,  1901,  1903,  1905,  1906,  2096
  2098,  2111,  2113,  2115,  2117,  2118,  2308,  2310,  2323,  2325,  2327,  2329,  2330,  2520,  2522,  2535
  2537,  2539,  2541,  2542,  2732,  2734,  2747,  2749,  2751,  2753,  2754,  2944,  2946,  2959,  2961,  2963
  2965,  2966,  3156,  3158,  3171,  3173,  3175,  3177,  3178,  3368,  3370,  3383,  3385,  3387,  3389,  3390
  3580,  3582,  3595,  3597,  3599,  3601,  3602,  3792,  3794,  3807,  3809,  3811,  3813,  3814,  4004,  4006
  4019,  4021,  4023,  4025,  4026,  4216,  4218,  4231,  4233,  4235,  4237,  4238,  4428,  4430,  4443,  4445
  4447,  4449,  4450,  4640,  4642,  4655,  4657,  4659,  4661,  4662,  4852,  4854,  4867,  4869,  4871,  4873
  4874,  5064,  5066,  5079,  5081,  5083,  5085,  5086,  5276,  5278,  5291,  5293,  5295,  5297,  5298,  5488
  5490,  5503,  5505,  5507,  5509,  5510,  5700,  5702,  5715,  5717,  5719,  5721,  5722,  5912,  5914,  5927
  5929,  5931,  5933,  5934,  6124,  6126,  6139,  6141,  6143,  6145,  6146,  6336,  6338,  6351,  6353,  6355
  6357,  6358,  6548,  6550,  6563,  6565,  6567,  6569,  6570,  6760,  6762,  6775,  6777,  6779,  6781,  6782
  6972,  6974,  6987,  6989,  6991,  6993,  6994,  7184,  7186,  7199,  7201,  7203,  7205,  7206,  7396,  7398
  7411,  7413,  7415,  7417,  7418,  7608,  7610,  7623,  7625,  7627,  7629,  7630,  7820,  7822,  7835,  7837
  7839,  7841,  7842,  8032,  8034,  8047,  8049,  8051,  8053,  8054,  8244,  8246,  8259,  8261,  8263,  8265
  8266,  8456,  8458,  8471,  8473,  8475,  8477,  8478,  8668,  8670,  8683,  8685,  8687,  8689,  8690,  8880
  8882,  8895,  8897,  8899,  8901,  8902,  9092,  9094,  9107,  9109,  9111,  9113,  9114,  9304,  9306,  9319
  9321,  9323,  9325,  9326,  9516,  9518,  9531,  9533,  9535,  9537,  9538,  9728,  9730,  9743,  9745,  9747
** ... 14 like lines cut
*Elset, elset=_Outlet_S2, internal, instance=Eulerian-1, generate
 15901,  16112,      1
*Surface, type=ELEMENT, name=Outlet
_Outlet_S5, S5
_Outlet_S4, S4
_Outlet_S6, S6
_Outlet_S2, S2
_Outlet_S3, S3
*Elset, elset=_P_in__Inside_S1, internal, instance=Eulerian-1
   1,   2,   3,   4,   5,   6,   7,   8,   9,  10,  11,  12,  13,  14,  15,  16
  17,  18,  19,  20,  21,  22,  23,  24,  25,  26,  27,  28,  29,  30,  31,  32
  33,  34,  35,  36,  37,  38,  39,  40,  41,  42,  43,  44,  45,  70,  71,  72
  73,  74,  75,  76,  77,  78,  79,  80,  81,  82,  83,  84,  85,  86,  87,  88
  89,  90,  91,  92,  93,  94,  95,  96,  97,  98,  99, 100, 101, 102, 103, 104
 105, 106, 107, 108, 109, 110, 111, 112, 113, 114, 115, 116, 117, 118, 119, 120
 121, 122, 123, 124, 125, 126, 127, 128, 129, 130, 131, 132, 133, 134, 135, 136
 137, 138, 139, 140, 141, 142, 143, 144, 145, 146, 147, 148, 149, 150, 151, 152
 153, 154, 155, 156, 157, 158, 159, 160, 161, 162, 163, 164, 165, 166, 167, 168
 169, 170, 171, 172, 173, 174, 175, 176, 177, 178, 179, 180, 181, 182, 183, 184
 185, 186, 187
*Surface, type=ELEMENT, name=P_in__Inside
_P_in__Inside_S1, S1
*Elset, elset=_Surf-8_S5, internal, instance=Eulerian-1, generate
   191,  16091,    212
*Elset, elset=_Surf-8_S4, internal, instance=Eulerian-1
   192,   199,   404,   411,   616,   623,   828,   835,  1040,  1047,  1252,  1259,  1464,  1471,  1676,  1683
  1888,  1895,  2100,  2107,  2312,  2319,  2524,  2531,  2736,  2743,  2948,  2955,  3160,  3167,  3372,  3379
  3584,  3591,  3796,  3803,  4008,  4015,  4220,  4227,  4432,  4439,  4644,  4651,  4856,  4863,  5068,  5075
  5280,  5287,  5492,  5499,  5704,  5711,  5916,  5923,  6128,  6135,  6340,  6347,  6552,  6559,  6764,  6771
  6976,  6983,  7188,  7195,  7400,  7407,  7612,  7619,  7824,  7831,  8036,  8043,  8248,  8255,  8460,  8467
  8672,  8679,  8884,  8891,  9096,  9103,  9308,  9315,  9520,  9527,  9732,  9739,  9944,  9951, 10156, 10163
 10368, 10375, 10580, 10587, 10792, 10799, 11004, 11011, 11216, 11223, 11428, 11435, 11640, 11647, 11852, 11859
 12064, 12071, 12276, 12283, 12488, 12495, 12700, 12707, 12912, 12919, 13124, 13131, 13336, 13343, 13548, 13555
 13760, 13767, 13972, 13979, 14184, 14191, 14396, 14403, 14608, 14615, 14820, 14827, 15032, 15039, 15244, 15251
 15456, 15463, 15668, 15675, 15880, 15887, 16092, 16099
*Elset, elset=_Surf-8_S6, internal, instance=Eulerian-1
   193,   198,   202,   405,   410,   414,   617,   622,   626,   829,   834,   838,  1041,  1046,  1050,  1253
  1258,  1262,  1465,  1470,  1474,  1677,  1682,  1686,  1889,  1894,  1898,  2101,  2106,  2110,  2313,  2318
  2322,  2525,  2530,  2534,  2737,  2742,  2746,  2949,  2954,  2958,  3161,  3166,  3170,  3373,  3378,  3382
  3585,  3590,  3594,  3797,  3802,  3806,  4009,  4014,  4018,  4221,  4226,  4230,  4433,  4438,  4442,  4645
  4650,  4654,  4857,  4862,  4866,  5069,  5074,  5078,  5281,  5286,  5290,  5493,  5498,  5502,  5705,  5710
  5714,  5917,  5922,  5926,  6129,  6134,  6138,  6341,  6346,  6350,  6553,  6558,  6562,  6765,  6770,  6774
  6977,  6982,  6986,  7189,  7194,  7198,  7401,  7406,  7410,  7613,  7618,  7622,  7825,  7830,  7834,  8037
  8042,  8046,  8249,  8254,  8258,  8461,  8466,  8470,  8673,  8678,  8682,  8885,  8890,  8894,  9097,  9102
  9106,  9309,  9314,  9318,  9521,  9526,  9530,  9733,  9738,  9742,  9945,  9950,  9954, 10157, 10162, 10166
 10369, 10374, 10378, 10581, 10586, 10590, 10793, 10798, 10802, 11005, 11010, 11014, 11217, 11222, 11226, 11429
 11434, 11438, 11641, 11646, 11650, 11853, 11858, 11862, 12065, 12070, 12074, 12277, 12282, 12286, 12489, 12494
 12498, 12701, 12706, 12710, 12913, 12918, 12922, 13125, 13130, 13134, 13337, 13342, 13346, 13549, 13554, 13558
 13761, 13766, 13770, 13973, 13978, 13982, 14185, 14190, 14194, 14397, 14402, 14406, 14609, 14614, 14618, 14821
 14826, 14830, 15033, 15038, 15042, 15245, 15250, 15254, 15457, 15462, 15466, 15669, 15674, 15678, 15881, 15886
 15890, 16093, 16098, 16102
*Elset, elset=_Surf-8_S3, internal, instance=Eulerian-1
   209,   210,   421,   422,   633,   634,   845,   846,  1057,  1058,  1269,  1270,  1481,  1482,  1693,  1694
  1905,  1906,  2117,  2118,  2329,  2330,  2541,  2542,  2753,  2754,  2965,  2966,  3177,  3178,  3389,  3390
  3601,  3602,  3813,  3814,  4025,  4026,  4237,  4238,  4449,  4450,  4661,  4662,  4873,  4874,  5085,  5086
  5297,  5298,  5509,  5510,  5721,  5722,  5933,  5934,  6145,  6146,  6357,  6358,  6569,  6570,  6781,  6782
  6993,  6994,  7205,  7206,  7417,  7418,  7629,  7630,  7841,  7842,  8053,  8054,  8265,  8266,  8477,  8478
  8689,  8690,  8901,  8902,  9113,  9114,  9325,  9326,  9537,  9538,  9749,  9750,  9961,  9962, 10173, 10174
 10385, 10386, 10597, 10598, 10809, 10810, 11021, 11022, 11233, 11234, 11445, 11446, 11657, 11658, 11869, 11870
 12081, 12082, 12293, 12294, 12505, 12506, 12717, 12718, 12929, 12930, 13141, 13142, 13353, 13354, 13565, 13566
 13777, 13778, 13989, 13990, 14201, 14202, 14413, 14414, 14625, 14626, 14837, 14838, 15049, 15050, 15261, 15262
 15473, 15474, 15685, 15686, 15897, 15898, 16109, 16110
*Surface, type=ELEMENT, name=Surf-8
_Surf-8_S5, S5
_Surf-8_S4, S4
_Surf-8_S6, S6
_Surf-8_S3, S3
*Elset, elset=__PickedSurf11_S4, internal, instance=Eulerian-1
     4,    32,    81,    93,   129,   141,   216,   244,   293,   305,   341,   353,   428,   456,   505,   517
   553,   565,   640,   668,   717,   729,   765,   777,   852,   880,   929,   941,   977,   989,  1064,  1092
  1141,  1153,  1189,  1201,  1276,  1304,  1353,  1365,  1401,  1413,  1488,  1516,  1565,  1577,  1613,  1625
  1700,  1728,  1777,  1789,  1825,  1837,  1912,  1940,  1989,  2001,  2037,  2049,  2124,  2152,  2201,  2213
  2249,  2261,  2336,  2364,  2413,  2425,  2461,  2473,  2548,  2576,  2625,  2637,  2673,  2685,  2760,  2788
  2837,  2849,  2885,  2897,  2972,  3000,  3049,  3061,  3097,  3109,  3184,  3212,  3261,  3273,  3309,  3321
  3396,  3424,  3473,  3485,  3521,  3533,  3608,  3636,  3685,  3697,  3733,  3745,  3820,  3848,  3897,  3909
  3945,  3957,  4032,  4060,  4109,  4121,  4157,  4169,  4244,  4272,  4321,  4333,  4369,  4381,  4456,  4484
  4533,  4545,  4581,  4593,  4668,  4696,  4745,  4757,  4793,  4805,  4880,  4908,  4957,  4969,  5005,  5017
  5092,  5120,  5169,  5181,  5217,  5229,  5304,  5332,  5381,  5393,  5429,  5441,  5516,  5544,  5593,  5605
  5641,  5653,  5728,  5756,  5805,  5817,  5853,  5865,  5940,  5968,  6017,  6029,  6065,  6077,  6152,  6180
  6229,  6241,  6277,  6289,  6364,  6392,  6441,  6453,  6489,  6501,  6576,  6604,  6653,  6665,  6701,  6713
  6788,  6816,  6865,  6877,  6913,  6925,  7000,  7028,  7077,  7089,  7125,  7137,  7212,  7240,  7289,  7301
  7337,  7349,  7424,  7452,  7501,  7513,  7549,  7561,  7636,  7664,  7713,  7725,  7761,  7773,  7848,  7876
  7925,  7937,  7973,  7985,  8060,  8088,  8137,  8149,  8185,  8197,  8272,  8300,  8349,  8361,  8397,  8409
  8484,  8512,  8561,  8573,  8609,  8621,  8696,  8724,  8773,  8785,  8821,  8833,  8908,  8936,  8985,  8997
  9033,  9045,  9120,  9148,  9197,  9209,  9245,  9257,  9332,  9360,  9409,  9421,  9457,  9469,  9544,  9572
  9621,  9633,  9669,  9681,  9756,  9784,  9833,  9845,  9881,  9893,  9968,  9996, 10045, 10057, 10093, 10105
 10180, 10208, 10257, 10269, 10305, 10317, 10392, 10420, 10469, 10481, 10517, 10529, 10604, 10632, 10681, 10693
 10729, 10741, 10816, 10844, 10893, 10905, 10941, 10953, 11028, 11056, 11105, 11117, 11153, 11165, 11240, 11268
** ... 9 like lines cut
*Elset, elset=__PickedSurf11_S6, internal, instance=Eulerian-1
     5,     7,     8,    18,    19,    20,    26,    28,    46,    58,    94,   106,   217,   219,   220,   230
   231,   232,   238,   240,   258,   270,   306,   318,   429,   431,   432,   442,   443,   444,   450,   452
   470,   482,   518,   530,   641,   643,   644,   654,   655,   656,   662,   664,   682,   694,   730,   742
   853,   855,   856,   866,   867,   868,   874,   876,   894,   906,   942,   954,  1065,  1067,  1068,  1078
  1079,  1080,  1086,  1088,  1106,  1118,  1154,  1166,  1277,  1279,  1280,  1290,  1291,  1292,  1298,  1300
  1318,  1330,  1366,  1378,  1489,  1491,  1492,  1502,  1503,  1504,  1510,  1512,  1530,  1542,  1578,  1590
  1701,  1703,  1704,  1714,  1715,  1716,  1722,  1724,  1742,  1754,  1790,  1802,  1913,  1915,  1916,  1926
  1927,  1928,  1934,  1936,  1954,  1966,  2002,  2014,  2125,  2127,  2128,  2138,  2139,  2140,  2146,  2148
  2166,  2178,  2214,  2226,  2337,  2339,  2340,  2350,  2351,  2352,  2358,  2360,  2378,  2390,  2426,  2438
  2549,  2551,  2552,  2562,  2563,  2564,  2570,  2572,  2590,  2602,  2638,  2650,  2761,  2763,  2764,  2774
  2775,  2776,  2782,  2784,  2802,  2814,  2850,  2862,  2973,  2975,  2976,  2986,  2987,  2988,  2994,  2996
  3014,  3026,  3062,  3074,  3185,  3187,  3188,  3198,  3199,  3200,  3206,  3208,  3226,  3238,  3274,  3286
  3397,  3399,  3400,  3410,  3411,  3412,  3418,  3420,  3438,  3450,  3486,  3498,  3609,  3611,  3612,  3622
  3623,  3624,  3630,  3632,  3650,  3662,  3698,  3710,  3821,  3823,  3824,  3834,  3835,  3836,  3842,  3844
  3862,  3874,  3910,  3922,  4033,  4035,  4036,  4046,  4047,  4048,  4054,  4056,  4074,  4086,  4122,  4134
  4245,  4247,  4248,  4258,  4259,  4260,  4266,  4268,  4286,  4298,  4334,  4346,  4457,  4459,  4460,  4470
  4471,  4472,  4478,  4480,  4498,  4510,  4546,  4558,  4669,  4671,  4672,  4682,  4683,  4684,  4690,  4692
  4710,  4722,  4758,  4770,  4881,  4883,  4884,  4894,  4895,  4896,  4902,  4904,  4922,  4934,  4970,  4982
  5093,  5095,  5096,  5106,  5107,  5108,  5114,  5116,  5134,  5146,  5182,  5194,  5305,  5307,  5308,  5318
  5319,  5320,  5326,  5328,  5346,  5358,  5394,  5406,  5517,  5519,  5520,  5530,  5531,  5532,  5538,  5540
** ... 37 like lines cut
*Elset, elset=__PickedSurf11_S3, internal, instance=Eulerian-1, generate
   193,  16093,    212
*Surface, type=ELEMENT, name=_PickedSurf11, internal
__PickedSurf11_S4, S4
__PickedSurf11_S6, S6
__PickedSurf11_S3, S3
*Elset, elset=__PickedSurf12_S4, internal, instance=Eulerian-1
    57,    69,   105,   117,   166,   269,   281,   317,   329,   378,   481,   493,   529,   541,   590,   693
   705,   741,   753,   802,   905,   917,   953,   965,  1014,  1117,  1129,  1165,  1177,  1226,  1329,  1341
  1377,  1389,  1438,  1541,  1553,  1589,  1601,  1650,  1753,  1765,  1801,  1813,  1862,  1965,  1977,  2013
  2025,  2074,  2177,  2189,  2225,  2237,  2286,  2389,  2401,  2437,  2449,  2498,  2601,  2613,  2649,  2661
  2710,  2813,  2825,  2861,  2873,  2922,  3025,  3037,  3073,  3085,  3134,  3237,  3249,  3285,  3297,  3346
  3449,  3461,  3497,  3509,  3558,  3661,  3673,  3709,  3721,  3770,  3873,  3885,  3921,  3933,  3982,  4085
  4097,  4133,  4145,  4194,  4297,  4309,  4345,  4357,  4406,  4509,  4521,  4557,  4569,  4618,  4721,  4733
  4769,  4781,  4830,  4933,  4945,  4981,  4993,  5042,  5145,  5157,  5193,  5205,  5254,  5357,  5369,  5405
  5417,  5466,  5569,  5581,  5617,  5629,  5678,  5781,  5793,  5829,  5841,  5890,  5993,  6005,  6041,  6053
  6102,  6205,  6217,  6253,  6265,  6314,  6417,  6429,  6465,  6477,  6526,  6629,  6641,  6677,  6689,  6738
  6841,  6853,  6889,  6901,  6950,  7053,  7065,  7101,  7113,  7162,  7265,  7277,  7313,  7325,  7374,  7477
  7489,  7525,  7537,  7586,  7689,  7701,  7737,  7749,  7798,  7901,  7913,  7949,  7961,  8010,  8113,  8125
  8161,  8173,  8222,  8325,  8337,  8373,  8385,  8434,  8537,  8549,  8585,  8597,  8646,  8749,  8761,  8797
  8809,  8858,  8961,  8973,  9009,  9021,  9070,  9173,  9185,  9221,  9233,  9282,  9385,  9397,  9433,  9445
  9494,  9597,  9609,  9645,  9657,  9706,  9809,  9821,  9857,  9869,  9918, 10021, 10033, 10069, 10081, 10130
 10233, 10245, 10281, 10293, 10342, 10445, 10457, 10493, 10505, 10554, 10657, 10669, 10705, 10717, 10766, 10869
 10881, 10917, 10929, 10978, 11081, 11093, 11129, 11141, 11190, 11293, 11305, 11341, 11353, 11402, 11505, 11517
 11553, 11565, 11614, 11717, 11729, 11765, 11777, 11826, 11929, 11941, 11977, 11989, 12038, 12141, 12153, 12189
 12201, 12250, 12353, 12365, 12401, 12413, 12462, 12565, 12577, 12613, 12625, 12674, 12777, 12789, 12825, 12837
 12886, 12989, 13001, 13037, 13049, 13098, 13201, 13213, 13249, 13261, 13310, 13413, 13425, 13461, 13473, 13522
** ... 4 like lines cut
*Elset, elset=__PickedSurf12_S6, internal, instance=Eulerian-1
    70,    82,   118,   130,   188,   282,   294,   330,   342,   400,   494,   506,   542,   554,   612,   706
   718,   754,   766,   824,   918,   930,   966,   978,  1036,  1130,  1142,  1178,  1190,  1248,  1342,  1354
  1390,  1402,  1460,  1554,  1566,  1602,  1614,  1672,  1766,  1778,  1814,  1826,  1884,  1978,  1990,  2026
  2038,  2096,  2190,  2202,  2238,  2250,  2308,  2402,  2414,  2450,  2462,  2520,  2614,  2626,  2662,  2674
  2732,  2826,  2838,  2874,  2886,  2944,  3038,  3050,  3086,  3098,  3156,  3250,  3262,  3298,  3310,  3368
  3462,  3474,  3510,  3522,  3580,  3674,  3686,  3722,  3734,  3792,  3886,  3898,  3934,  3946,  4004,  4098
  4110,  4146,  4158,  4216,  4310,  4322,  4358,  4370,  4428,  4522,  4534,  4570,  4582,  4640,  4734,  4746
  4782,  4794,  4852,  4946,  4958,  4994,  5006,  5064,  5158,  5170,  5206,  5218,  5276,  5370,  5382,  5418
  5430,  5488,  5582,  5594,  5630,  5642,  5700,  5794,  5806,  5842,  5854,  5912,  6006,  6018,  6054,  6066
  6124,  6218,  6230,  6266,  6278,  6336,  6430,  6442,  6478,  6490,  6548,  6642,  6654,  6690,  6702,  6760
  6854,  6866,  6902,  6914,  6972,  7066,  7078,  7114,  7126,  7184,  7278,  7290,  7326,  7338,  7396,  7490
  7502,  7538,  7550,  7608,  7702,  7714,  7750,  7762,  7820,  7914,  7926,  7962,  7974,  8032,  8126,  8138
  8174,  8186,  8244,  8338,  8350,  8386,  8398,  8456,  8550,  8562,  8598,  8610,  8668,  8762,  8774,  8810
  8822,  8880,  8974,  8986,  9022,  9034,  9092,  9186,  9198,  9234,  9246,  9304,  9398,  9410,  9446,  9458
  9516,  9610,  9622,  9658,  9670,  9728,  9822,  9834,  9870,  9882,  9940, 10034, 10046, 10082, 10094, 10152
 10246, 10258, 10294, 10306, 10364, 10458, 10470, 10506, 10518, 10576, 10670, 10682, 10718, 10730, 10788, 10882
 10894, 10930, 10942, 11000, 11094, 11106, 11142, 11154, 11212, 11306, 11318, 11354, 11366, 11424, 11518, 11530
 11566, 11578, 11636, 11730, 11742, 11778, 11790, 11848, 11942, 11954, 11990, 12002, 12060, 12154, 12166, 12202
 12214, 12272, 12366, 12378, 12414, 12426, 12484, 12578, 12590, 12626, 12638, 12696, 12790, 12802, 12838, 12850
 12908, 13002, 13014, 13050, 13062, 13120, 13214, 13226, 13262, 13274, 13332, 13426, 13438, 13474, 13486, 13544
** ... 4 like lines cut
*Elset, elset=__PickedSurf12_S5, internal, instance=Eulerian-1
   153,   156,   163,   170,   174,   365,   368,   375,   382,   386,   577,   580,   587,   594,   598,   789
   792,   799,   806,   810,  1001,  1004,  1011,  1018,  1022,  1213,  1216,  1223,  1230,  1234,  1425,  1428
  1435,  1442,  1446,  1637,  1640,  1647,  1654,  1658,  1849,  1852,  1859,  1866,  1870,  2061,  2064,  2071
  2078,  2082,  2273,  2276,  2283,  2290,  2294,  2485,  2488,  2495,  2502,  2506,  2697,  2700,  2707,  2714
  2718,  2909,  2912,  2919,  2926,  2930,  3121,  3124,  3131,  3138,  3142,  3333,  3336,  3343,  3350,  3354
  3545,  3548,  3555,  3562,  3566,  3757,  3760,  3767,  3774,  3778,  3969,  3972,  3979,  3986,  3990,  4181
  4184,  4191,  4198,  4202,  4393,  4396,  4403,  4410,  4414,  4605,  4608,  4615,  4622,  4626,  4817,  4820
  4827,  4834,  4838,  5029,  5032,  5039,  5046,  5050,  5241,  5244,  5251,  5258,  5262,  5453,  5456,  5463
  5470,  5474,  5665,  5668,  5675,  5682,  5686,  5877,  5880,  5887,  5894,  5898,  6089,  6092,  6099,  6106
  6110,  6301,  6304,  6311,  6318,  6322,  6513,  6516,  6523,  6530,  6534,  6725,  6728,  6735,  6742,  6746
  6937,  6940,  6947,  6954,  6958,  7149,  7152,  7159,  7166,  7170,  7361,  7364,  7371,  7378,  7382,  7573
  7576,  7583,  7590,  7594,  7785,  7788,  7795,  7802,  7806,  7997,  8000,  8007,  8014,  8018,  8209,  8212
  8219,  8226,  8230,  8421,  8424,  8431,  8438,  8442,  8633,  8636,  8643,  8650,  8654,  8845,  8848,  8855
  8862,  8866,  9057,  9060,  9067,  9074,  9078,  9269,  9272,  9279,  9286,  9290,  9481,  9484,  9491,  9498
  9502,  9693,  9696,  9703,  9710,  9714,  9905,  9908,  9915,  9922,  9926, 10117, 10120, 10127, 10134, 10138
 10329, 10332, 10339, 10346, 10350, 10541, 10544, 10551, 10558, 10562, 10753, 10756, 10763, 10770, 10774, 10965
 10968, 10975, 10982, 10986, 11177, 11180, 11187, 11194, 11198, 11389, 11392, 11399, 11406, 11410, 11601, 11604
 11611, 11618, 11622, 11813, 11816, 11823, 11830, 11834, 12025, 12028, 12035, 12042, 12046, 12237, 12240, 12247
 12254, 12258, 12449, 12452, 12459, 12466, 12470, 12661, 12664, 12671, 12678, 12682, 12873, 12876, 12883, 12890
 12894, 13085, 13088, 13095, 13102, 13106, 13297, 13300, 13307, 13314, 13318, 13509, 13512, 13519, 13526, 13530
** ... 4 like lines cut
*Elset, elset=__PickedSurf12_S3, internal, instance=Eulerian-1
   160,   161,   167,   173,   372,   373,   379,   385,   584,   585,   591,   597,   796,   797,   803,   809
  1008,  1009,  1015,  1021,  1220,  1221,  1227,  1233,  1432,  1433,  1439,  1445,  1644,  1645,  1651,  1657
  1856,  1857,  1863,  1869,  2068,  2069,  2075,  2081,  2280,  2281,  2287,  2293,  2492,  2493,  2499,  2505
  2704,  2705,  2711,  2717,  2916,  2917,  2923,  2929,  3128,  3129,  3135,  3141,  3340,  3341,  3347,  3353
  3552,  3553,  3559,  3565,  3764,  3765,  3771,  3777,  3976,  3977,  3983,  3989,  4188,  4189,  4195,  4201
  4400,  4401,  4407,  4413,  4612,  4613,  4619,  4625,  4824,  4825,  4831,  4837,  5036,  5037,  5043,  5049
  5248,  5249,  5255,  5261,  5460,  5461,  5467,  5473,  5672,  5673,  5679,  5685,  5884,  5885,  5891,  5897
  6096,  6097,  6103,  6109,  6308,  6309,  6315,  6321,  6520,  6521,  6527,  6533,  6732,  6733,  6739,  6745
  6944,  6945,  6951,  6957,  7156,  7157,  7163,  7169,  7368,  7369,  7375,  7381,  7580,  7581,  7587,  7593
  7792,  7793,  7799,  7805,  8004,  8005,  8011,  8017,  8216,  8217,  8223,  8229,  8428,  8429,  8435,  8441
  8640,  8641,  8647,  8653,  8852,  8853,  8859,  8865,  9064,  9065,  9071,  9077,  9276,  9277,  9283,  9289
  9488,  9489,  9495,  9501,  9700,  9701,  9707,  9713,  9912,  9913,  9919,  9925, 10124, 10125, 10131, 10137
 10336, 10337, 10343, 10349, 10548, 10549, 10555, 10561, 10760, 10761, 10767, 10773, 10972, 10973, 10979, 10985
 11184, 11185, 11191, 11197, 11396, 11397, 11403, 11409, 11608, 11609, 11615, 11621, 11820, 11821, 11827, 11833
 12032, 12033, 12039, 12045, 12244, 12245, 12251, 12257, 12456, 12457, 12463, 12469, 12668, 12669, 12675, 12681
 12880, 12881, 12887, 12893, 13092, 13093, 13099, 13105, 13304, 13305, 13311, 13317, 13516, 13517, 13523, 13529
 13728, 13729, 13735, 13741, 13940, 13941, 13947, 13953, 14152, 14153, 14159, 14165, 14364, 14365, 14371, 14377
 14576, 14577, 14583, 14589, 14788, 14789, 14795, 14801, 15000, 15001, 15007, 15013, 15212, 15213, 15219, 15225
 15424, 15425, 15431, 15437, 15636, 15637, 15643, 15649, 15848, 15849, 15855, 15861, 16060, 16061, 16067, 16073
*Surface, type=ELEMENT, name=_PickedSurf12, internal
__PickedSurf12_S4, S4
__PickedSurf12_S6, S6
__PickedSurf12_S5, S5
__PickedSurf12_S3, S3
*End Assembly
** 
** ELEMENT CONTROLS
** 
*Section Controls, name=EC-1, second order accuracy=YES
1., 1., 1.
*Section Controls, name=EC-2, hourglass=ENHANCED, second order accuracy=YES
1., 1., 1.
*Amplitude, name=Amp-1
             0.,              1.,           0.003,              1.,          0.0031,              0.,             0.1,              0.
*Amplitude, name=ZeroPressureWorkaround
             0.,              0.,              3.,              0.
** 
** MATERIALS
** 
*Material, name=Fluid
*Density
1000.,
*Viscosity
 0.003,
*Eos, type=USER, PROPERTIES=2
150, 7.15
*Material, name=Solid
*Density
1200.,
*Hyperelastic, neo hooke
57690.,0.
** 
** INTERACTION PROPERTIES
** 
*Surface Interaction, name=GeneralContact
*Surface Interaction, name=LinearContact
*Surface Behavior, pressure-overclosure=LINEAR
0.08, 
** 
** BOUNDARY CONDITIONS
** 
** Name: LagrangeSymmetry1_trueY Type: Symmetry/Antisymmetry/Encastre
*Boundary
LagrangeYSymmNodes, YSYMM
** Name: LagrangeSymmetry2_UserZ Type: Symmetry/Antisymmetry/Encastre
*Boundary
LagrangeXSymmNodes, XSYMM
** 
** PREDEFINED FIELDS
** 
** Name: MaterialFraction   Type: Material assignment
*Initial Conditions, type=VOLUME FRACTION
Eulerian-1.1, Eulerian-1.fluid-1, 1.
Eulerian-1.2, Eulerian-1.fluid-1, 1.
Eulerian-1.3, Eulerian-1.fluid-1, 1.
Eulerian-1.4, Eulerian-1.fluid-1, 1.
Eulerian-1.5, Eulerian-1.fluid-1, 1.
Eulerian-1.6, Eulerian-1.fluid-1, 1.
Eulerian-1.7, Eulerian-1.fluid-1, 1.
Eulerian-1.8, Eulerian-1.fluid-1, 1.
Eulerian-1.9, Eulerian-1.fluid-1, 1.
Eulerian-1.10, Eulerian-1.fluid-1, 1.
Eulerian-1.11, Eulerian-1.fluid-1, 1.
Eulerian-1.12, Eulerian-1.fluid-1, 1.
Eulerian-1.13, Eulerian-1.fluid-1, 1.
Eulerian-1.14, Eulerian-1.fluid-1, 1.
Eulerian-1.15, Eulerian-1.fluid-1, 1.
Eulerian-1.16, Eulerian-1.fluid-1, 1.
Eulerian-1.17, Eulerian-1.fluid-1, 1.
Eulerian-1.18, Eulerian-1.fluid-1, 1.
Eulerian-1.19, Eulerian-1.fluid-1, 1.
Eulerian-1.20, Eulerian-1.fluid-1, 1.
** ... 8720 like lines cut
** ----------------------------------------------------------------
** 
** STEP: Step-1
** 
*Step, name=Step-1, nlgeom=YES
Pressure on
*Dynamic, Explicit
, 0.02
*Bulk Viscosity
0.06, 1.2
** 
** BOUNDARY CONDITIONS
** 
** Name: EulerOutFace Type: Eulerian boundary
*Eulerian Boundary, outflow=ZERO PRESSURE
OutFace
** Name: Euler_Inlet Type: Eulerian boundary
*Eulerian Boundary, inflow=FREE
P_in__Inside
** Name: LagrangeInlet Type: Symmetry/Antisymmetry/Encastre
*Boundary
LagrangeInletNodes, ENCASTRE
** Name: LagrangeOutlet Type: Symmetry/Antisymmetry/Encastre
*Boundary
LagrangeOutletNodes, ENCASTRE
** Name: Symmetry1 Type: Eulerian boundary
*Eulerian Boundary, inflow=NONE, outflow=NONE
_PickedSurf11
** Name: Symmetry2 Type: Eulerian boundary
*Eulerian Boundary, inflow=NONE, outflow=NONE
_PickedSurf12
** 
** LOADS
** 
** Name: Pout   Type: Pressure
*Dsload, amplitude=ZeroPressureWorkaround
OutFace, P, 1.
** Name: Pressurein   Type: Pressure
*Dsload, amplitude=Amp-1
P_in__Inside, P, 1333.33
** 
** INTERACTIONS
** 
** Interaction: Interaction
*Contact, op=NEW
*Contact Inclusions, ALL EXTERIOR
*Contact Property Assignment
 ,  , GeneralContact
** 
** OUTPUT REQUESTS
** 
*Restart, write, number interval=1, time marks=NO
** 
** FIELD OUTPUT: F-Output-1
** 
*Output, field, number interval=100
*Node Output
A, RF, U, V
*Element Output, directions=YES
DENSITY, EVF, LE, MFL, P, PE, PEEQ, PEEQVAVG, PEVAVG, S, SVAVG
*Contact Output
CSTRESS, 
** 
** HISTORY OUTPUT: H-Output-1
** 
*Output, history, variable=PRESELECT
*End Step
