*Heading
** Job name: ETubeSlightOverlap Model name: Model-1
** Generated by: Abaqus/CAE 2023
*Preprint, echo=NO, model=NO, history=NO, contact=NO
**
** PARTS
**
*Part, name=Eulerian
*Node
      1,           0.,           0., 0.0500000007
      2, 0.00318198046, 0.00318198046, 0.0500000007
      3,           0., 0.00449999981, 0.0500000007
      4, 0.00449999981,           0., 0.0500000007
      5, 0.00499999989,           0., 0.0500000007
      6,           0., 0.00499999989, 0.0500000007
      7, 0.00549999997,           0., 0.0500000007
      8,           0., 0.00549999997, 0.0500000007
      9, 0.00600000005,           0., 0.0500000007
     10,           0., 0.00600000005, 0.0500000007
     11, 0.00620000018,           0., 0.0500000007
     12,           0., 0.00620000018, 0.0500000007
     13, 0.000289270945, 0.000289270945, 0.0500000007
     14, 0.000578541891, 0.000578541891, 0.0500000007
     15, 0.000867812894, 0.000867812894, 0.0500000007
     16, 0.00115708378, 0.00115708378, 0.0500000007
     17, 0.00144635479, 0.00144635479, 0.0500000007
     18, 0.00173562579, 0.00173562579, 0.0500000007
     19, 0.00202489668, 0.00202489668, 0.0500000007
     20, 0.00231416756, 0.00231416756, 0.0500000007
** ... 7078 like lines cut
*Element, type=EC3D8R
   1,   14,   92,   94,   15,  196,  274,  276,  197
   2,   92,   14,   13,  115,  274,  196,  195,  297
   3,   15,   94,   95,   16,  197,  276,  277,  198
   4,   16,   95,   96,   17,  198,  277,  278,  199
   5,   18,   97,   93,   19,  200,  279,  275,  201
   6,  103,  109,  110,  102,  285,  291,  292,  284
   7,   31,   30,  102,  101,  213,  212,  284,  283
   8,  106,  111,  121,  107,  288,  293,  303,  289
   9,  117,   21,   20,   98,  299,  203,  202,  280
  10,   19,   93,   98,   20,  201,  275,  280,  202
  11,   91,  112,   24,   23,  273,  294,  206,  205
  12,   22,   91,   23,    2,  204,  273,  205,  184
  13,   26,  118,   27,    3,  208,  300,  209,  185
  14,  105,  113,  114,  112,  287,  295,  296,  294
  15,  115,   13,    1,   35,  297,  195,  183,  217
  16,  116,  115,   35,   34,  298,  297,  217,  216
  17,   99,  116,   34,   33,  281,  298,  216,  215
  18,   95,   94,  116,   99,  277,  276,  298,  281
  19,  107,   96,   95,  106,  289,  278,  277,  288
  20,   32,   31,  101,  100,  214,  213,  283,  282
** ... 6022 like lines cut
*Nset, nset=Set-1, generate
    1,  7098,     1
*Elset, elset=Set-1, generate
    1,  6042,     1
** Section: EulerianSection
*Eulerian Section, elset=Set-1, controls=EC-1
Fluid, fluid-1
*Surface, type=EULERIAN MATERIAL, name=fluid-1
fluid-1
*End Part
**  
*Part, name=Lagrangian
*Node
      1, 0.00600000005,           0., 0.0500000007
      2, 0.00549999997,           0., 0.0500000007
      3, 0.00499999989,           0., 0.0500000007
      4, 0.00600000005,           0.,  0.049342107
      5, 0.00549999997,           0.,  0.049342107
      6, 0.00499999989,           0.,  0.049342107
      7, 0.00600000005,           0., 0.0486842096
      8, 0.00549999997,           0., 0.0486842096
      9, 0.00499999989,           0., 0.0486842096
     10, 0.00600000005,           0., 0.0480263159
     11, 0.00549999997,           0., 0.0480263159
     12, 0.00499999989,           0., 0.0480263159
     13, 0.00600000005,           0., 0.0473684222
     14, 0.00549999997,           0., 0.0473684222
     15, 0.00499999989,           0., 0.0473684222
     16, 0.00600000005,           0., 0.0467105247
     17, 0.00549999997,           0., 0.0467105247
     18, 0.00499999989,           0., 0.0467105247
     19, 0.00600000005,           0.,  0.046052631
     20, 0.00549999997,           0.,  0.046052631
** ... 4831 like lines cut
*Element, type=C3D8R
   1,  232,  233,  236,  235,    1,    2,    5,    4
   2,  233,  234,  237,  236,    2,    3,    6,    5
   3,  235,  236,  239,  238,    4,    5,    8,    7
   4,  236,  237,  240,  239,    5,    6,    9,    8
   5,  238,  239,  242,  241,    7,    8,   11,   10
   6,  239,  240,  243,  242,    8,    9,   12,   11
   7,  241,  242,  245,  244,   10,   11,   14,   13
   8,  242,  243,  246,  245,   11,   12,   15,   14
   9,  244,  245,  248,  247,   13,   14,   17,   16
  10,  245,  246,  249,  248,   14,   15,   18,   17
  11,  247,  248,  251,  250,   16,   17,   20,   19
  12,  248,  249,  252,  251,   17,   18,   21,   20
  13,  250,  251,  254,  253,   19,   20,   23,   22
  14,  251,  252,  255,  254,   20,   21,   24,   23
  15,  253,  254,  257,  256,   22,   23,   26,   25
  16,  254,  255,  258,  257,   23,   24,   27,   26
  17,  256,  257,  260,  259,   25,   26,   29,   28
  18,  257,  258,  261,  260,   26,   27,   30,   29
  19,  259,  260,  263,  262,   28,   29,   32,   31
  20,  260,  261,  264,  263,   29,   30,   33,   32
** ... 3020 like lines cut
*Nset, nset=_PickedSet2, internal, generate
    1,  4851,     1
*Elset, elset=_PickedSet2, internal, generate
    1,  3040,     1
** Section: LagrangianSection
*Solid Section, elset=_PickedSet2, controls=EC-2, material=Solid
,
*End Part
**  
**
** ASSEMBLY
**
*Assembly, name=Assembly
**  
*Instance, name=Eulerian-1, part=Eulerian
*End Instance
**  
*Instance, name=Lagrangian-1, part=Lagrangian
*End Instance
**  
*Nset, nset=LagrangeInletNodes, instance=Lagrangian-1
  229,  230,  231,  460,  461,  462,  691,  692,  693,  922,  923,  924, 1153, 1154, 1155, 1384
 1385, 1386, 1615, 1616, 1617, 1846, 1847, 1848, 2077, 2078, 2079, 2308, 2309, 2310, 2539, 2540
 2541, 2770, 2771, 2772, 3001, 3002, 3003, 3232, 3233, 3234, 3463, 3464, 3465, 3694, 3695, 3696
 3925, 3926, 3927, 4156, 4157, 4158, 4387, 4388, 4389, 4618, 4619, 4620, 4849, 4850, 4851
*Nset, nset=LagrangeOutletNodes, instance=Lagrangian-1
    1,    2,    3,  232,  233,  234,  463,  464,  465,  694,  695,  696,  925,  926,  927, 1156
 1157, 1158, 1387, 1388, 1389, 1618, 1619, 1620, 1849, 1850, 1851, 2080, 2081, 2082, 2311, 2312
 2313, 2542, 2543, 2544, 2773, 2774, 2775, 3004, 3005, 3006, 3235, 3236, 3237, 3466, 3467, 3468
 3697, 3698, 3699, 3928, 3929, 3930, 4159, 4160, 4161, 4390, 4391, 4392, 4621, 4622, 4623
*Nset, nset=LagrangeXSymmNodes, instance=Lagrangian-1, generate
 4624,  4848,     1
*Nset, nset=LagrangeYSymmNodes, instance=Lagrangian-1, generate
   4,  228,    1
*Nset, nset=Wall, instance=Lagrangian-1, generate
    3,  4851,     3
*Elset, elset=Wall, instance=Lagrangian-1, generate
    2,  3040,     2
*Nset, nset=_PickedSet97, internal, instance=Eulerian-1, generate
    1,  7098,     1
*Elset, elset=_PickedSet97, internal, instance=Eulerian-1, generate
    1,  6042,     1
*Elset, elset=_Euler_CurvedOuter_S3, internal, instance=Eulerian-1
  150,  151,  152,  153,  154,  155,  156,  157,  158,  159,  309,  310,  311,  312,  313,  314
  315,  316,  317,  318,  468,  469,  470,  471,  472,  473,  474,  475,  476,  477,  627,  628
  629,  630,  631,  632,  633,  634,  635,  636,  786,  787,  788,  789,  790,  791,  792,  793
  794,  795,  945,  946,  947,  948,  949,  950,  951,  952,  953,  954, 1104, 1105, 1106, 1107
 1108, 1109, 1110, 1111, 1112, 1113, 1263, 1264, 1265, 1266, 1267, 1268, 1269, 1270, 1271, 1272
 1422, 1423, 1424, 1425, 1426, 1427, 1428, 1429, 1430, 1431, 1581, 1582, 1583, 1584, 1585, 1586
 1587, 1588, 1589, 1590, 1740, 1741, 1742, 1743, 1744, 1745, 1746, 1747, 1748, 1749, 1899, 1900
 1901, 1902, 1903, 1904, 1905, 1906, 1907, 1908, 2058, 2059, 2060, 2061, 2062, 2063, 2064, 2065
 2066, 2067, 2217, 2218, 2219, 2220, 2221, 2222, 2223, 2224, 2225, 2226, 2376, 2377, 2378, 2379
 2380, 2381, 2382, 2383, 2384, 2385, 2535, 2536, 2537, 2538, 2539, 2540, 2541, 2542, 2543, 2544
 2694, 2695, 2696, 2697, 2698, 2699, 2700, 2701, 2702, 2703, 2853, 2854, 2855, 2856, 2857, 2858
 2859, 2860, 2861, 2862, 3012, 3013, 3014, 3015, 3016, 3017, 3018, 3019, 3020, 3021, 3171, 3172
 3173, 3174, 3175, 3176, 3177, 3178, 3179, 3180, 3330, 3331, 3332, 3333, 3334, 3335, 3336, 3337
 3338, 3339, 3489, 3490, 3491, 3492, 3493, 3494, 3495, 3496, 3497, 3498, 3648, 3649, 3650, 3651
 3652, 3653, 3654, 3655, 3656, 3657, 3807, 3808, 3809, 3810, 3811, 3812, 3813, 3814, 3815, 3816
 3966, 3967, 3968, 3969, 3970, 3971, 3972, 3973, 3974, 3975, 4125, 4126, 4127, 4128, 4129, 4130
 4131, 4132, 4133, 4134, 4284, 4285, 4286, 4287, 4288, 4289, 4290, 4291, 4292, 4293, 4443, 4444
 4445, 4446, 4447, 4448, 4449, 4450, 4451, 4452, 4602, 4603, 4604, 4605, 4606, 4607, 4608, 4609
 4610, 4611, 4761, 4762, 4763, 4764, 4765, 4766, 4767, 4768, 4769, 4770, 4920, 4921, 4922, 4923
 4924, 4925, 4926, 4927, 4928, 4929, 5079, 5080, 5081, 5082, 5083, 5084, 5085, 5086, 5087, 5088
** ... 4 like lines cut
*Surface, type=ELEMENT, name=Euler_CurvedOuter
_Euler_CurvedOuter_S3, S3
*Elset, elset=_Inlet_S1, internal, instance=Eulerian-1, generate
   1,  149,    1
*Surface, type=ELEMENT, name=Inlet
_Inlet_S1, S1
*Elset, elset=_Inlet_ZeroP_S1, internal, instance=Eulerian-1, generate
 150,  159,    1
*Surface, type=ELEMENT, name=Inlet_ZeroP
_Inlet_ZeroP_S1, S1
*Elset, elset=_Outlet_S2, internal, instance=Eulerian-1, generate
 5884,  6042,     1
*Surface, type=ELEMENT, name=Outlet
_Outlet_S2, S2
*Elset, elset=__PickedSurf11_S3, internal, instance=Eulerian-1
    7,   20,   22,   23,   28,   35,  166,  179,  181,  182,  187,  194,  325,  338,  340,  341
  346,  353,  484,  497,  499,  500,  505,  512,  643,  656,  658,  659,  664,  671,  802,  815
  817,  818,  823,  830,  961,  974,  976,  977,  982,  989, 1120, 1133, 1135, 1136, 1141, 1148
 1279, 1292, 1294, 1295, 1300, 1307, 1438, 1451, 1453, 1454, 1459, 1466, 1597, 1610, 1612, 1613
 1618, 1625, 1756, 1769, 1771, 1772, 1777, 1784, 1915, 1928, 1930, 1931, 1936, 1943, 2074, 2087
 2089, 2090, 2095, 2102, 2233, 2246, 2248, 2249, 2254, 2261, 2392, 2405, 2407, 2408, 2413, 2420
 2551, 2564, 2566, 2567, 2572, 2579, 2710, 2723, 2725, 2726, 2731, 2738, 2869, 2882, 2884, 2885
 2890, 2897, 3028, 3041, 3043, 3044, 3049, 3056, 3187, 3200, 3202, 3203, 3208, 3215, 3346, 3359
 3361, 3362, 3367, 3374, 3505, 3518, 3520, 3521, 3526, 3533, 3664, 3677, 3679, 3680, 3685, 3692
 3823, 3836, 3838, 3839, 3844, 3851, 3982, 3995, 3997, 3998, 4003, 4010, 4141, 4154, 4156, 4157
 4162, 4169, 4300, 4313, 4315, 4316, 4321, 4328, 4459, 4472, 4474, 4475, 4480, 4487, 4618, 4631
 4633, 4634, 4639, 4646, 4777, 4790, 4792, 4793, 4798, 4805, 4936, 4949, 4951, 4952, 4957, 4964
 5095, 5108, 5110, 5111, 5116, 5123, 5254, 5267, 5269, 5270, 5275, 5282, 5413, 5426, 5428, 5429
 5434, 5441, 5572, 5585, 5587, 5588, 5593, 5600, 5731, 5744, 5746, 5747, 5752, 5759, 5890, 5903
 5905, 5906, 5911, 5918
*Elset, elset=__PickedSurf11_S5, internal, instance=Eulerian-1
   13,   15,   16,   17,  172,  174,  175,  176,  331,  333,  334,  335,  490,  492,  493,  494
  649,  651,  652,  653,  808,  810,  811,  812,  967,  969,  970,  971, 1126, 1128, 1129, 1130
 1285, 1287, 1288, 1289, 1444, 1446, 1447, 1448, 1603, 1605, 1606, 1607, 1762, 1764, 1765, 1766
 1921, 1923, 1924, 1925, 2080, 2082, 2083, 2084, 2239, 2241, 2242, 2243, 2398, 2400, 2401, 2402
 2557, 2559, 2560, 2561, 2716, 2718, 2719, 2720, 2875, 2877, 2878, 2879, 3034, 3036, 3037, 3038
 3193, 3195, 3196, 3197, 3352, 3354, 3355, 3356, 3511, 3513, 3514, 3515, 3670, 3672, 3673, 3674
 3829, 3831, 3832, 3833, 3988, 3990, 3991, 3992, 4147, 4149, 4150, 4151, 4306, 4308, 4309, 4310
 4465, 4467, 4468, 4469, 4624, 4626, 4627, 4628, 4783, 4785, 4786, 4787, 4942, 4944, 4945, 4946
 5101, 5103, 5104, 5105, 5260, 5262, 5263, 5264, 5419, 5421, 5422, 5423, 5578, 5580, 5581, 5582
 5737, 5739, 5740, 5741, 5896, 5898, 5899, 5900
*Elset, elset=__PickedSurf11_S6, internal, instance=Eulerian-1
   90,  100,  110,  120,  130,  140,  150,  249,  259,  269,  279,  289,  299,  309,  408,  418
  428,  438,  448,  458,  468,  567,  577,  587,  597,  607,  617,  627,  726,  736,  746,  756
  766,  776,  786,  885,  895,  905,  915,  925,  935,  945, 1044, 1054, 1064, 1074, 1084, 1094
 1104, 1203, 1213, 1223, 1233, 1243, 1253, 1263, 1362, 1372, 1382, 1392, 1402, 1412, 1422, 1521
 1531, 1541, 1551, 1561, 1571, 1581, 1680, 1690, 1700, 1710, 1720, 1730, 1740, 1839, 1849, 1859
 1869, 1879, 1889, 1899, 1998, 2008, 2018, 2028, 2038, 2048, 2058, 2157, 2167, 2177, 2187, 2197
 2207, 2217, 2316, 2326, 2336, 2346, 2356, 2366, 2376, 2475, 2485, 2495, 2505, 2515, 2525, 2535
 2634, 2644, 2654, 2664, 2674, 2684, 2694, 2793, 2803, 2813, 2823, 2833, 2843, 2853, 2952, 2962
 2972, 2982, 2992, 3002, 3012, 3111, 3121, 3131, 3141, 3151, 3161, 3171, 3270, 3280, 3290, 3300
 3310, 3320, 3330, 3429, 3439, 3449, 3459, 3469, 3479, 3489, 3588, 3598, 3608, 3618, 3628, 3638
 3648, 3747, 3757, 3767, 3777, 3787, 3797, 3807, 3906, 3916, 3926, 3936, 3946, 3956, 3966, 4065
 4075, 4085, 4095, 4105, 4115, 4125, 4224, 4234, 4244, 4254, 4264, 4274, 4284, 4383, 4393, 4403
 4413, 4423, 4433, 4443, 4542, 4552, 4562, 4572, 4582, 4592, 4602, 4701, 4711, 4721, 4731, 4741
 4751, 4761, 4860, 4870, 4880, 4890, 4900, 4910, 4920, 5019, 5029, 5039, 5049, 5059, 5069, 5079
 5178, 5188, 5198, 5208, 5218, 5228, 5238, 5337, 5347, 5357, 5367, 5377, 5387, 5397, 5496, 5506
 5516, 5526, 5536, 5546, 5556, 5655, 5665, 5675, 5685, 5695, 5705, 5715, 5814, 5824, 5834, 5844
 5854, 5864, 5874, 5973, 5983, 5993, 6003, 6013, 6023, 6033
*Surface, type=ELEMENT, name=_PickedSurf11, internal
__PickedSurf11_S3, S3
__PickedSurf11_S5, S5
__PickedSurf11_S6, S6
*Elset, elset=__PickedSurf12_S4, internal, instance=Eulerian-1
   46,   62,   99,  109,  119,  129,  139,  149,  159,  205,  221,  258,  268,  278,  288,  298
  308,  318,  364,  380,  417,  427,  437,  447,  457,  467,  477,  523,  539,  576,  586,  596
  606,  616,  626,  636,  682,  698,  735,  745,  755,  765,  775,  785,  795,  841,  857,  894
  904,  914,  924,  934,  944,  954, 1000, 1016, 1053, 1063, 1073, 1083, 1093, 1103, 1113, 1159
 1175, 1212, 1222, 1232, 1242, 1252, 1262, 1272, 1318, 1334, 1371, 1381, 1391, 1401, 1411, 1421
 1431, 1477, 1493, 1530, 1540, 1550, 1560, 1570, 1580, 1590, 1636, 1652, 1689, 1699, 1709, 1719
 1729, 1739, 1749, 1795, 1811, 1848, 1858, 1868, 1878, 1888, 1898, 1908, 1954, 1970, 2007, 2017
 2027, 2037, 2047, 2057, 2067, 2113, 2129, 2166, 2176, 2186, 2196, 2206, 2216, 2226, 2272, 2288
 2325, 2335, 2345, 2355, 2365, 2375, 2385, 2431, 2447, 2484, 2494, 2504, 2514, 2524, 2534, 2544
 2590, 2606, 2643, 2653, 2663, 2673, 2683, 2693, 2703, 2749, 2765, 2802, 2812, 2822, 2832, 2842
 2852, 2862, 2908, 2924, 2961, 2971, 2981, 2991, 3001, 3011, 3021, 3067, 3083, 3120, 3130, 3140
 3150, 3160, 3170, 3180, 3226, 3242, 3279, 3289, 3299, 3309, 3319, 3329, 3339, 3385, 3401, 3438
 3448, 3458, 3468, 3478, 3488, 3498, 3544, 3560, 3597, 3607, 3617, 3627, 3637, 3647, 3657, 3703
 3719, 3756, 3766, 3776, 3786, 3796, 3806, 3816, 3862, 3878, 3915, 3925, 3935, 3945, 3955, 3965
 3975, 4021, 4037, 4074, 4084, 4094, 4104, 4114, 4124, 4134, 4180, 4196, 4233, 4243, 4253, 4263
 4273, 4283, 4293, 4339, 4355, 4392, 4402, 4412, 4422, 4432, 4442, 4452, 4498, 4514, 4551, 4561
 4571, 4581, 4591, 4601, 4611, 4657, 4673, 4710, 4720, 4730, 4740, 4750, 4760, 4770, 4816, 4832
 4869, 4879, 4889, 4899, 4909, 4919, 4929, 4975, 4991, 5028, 5038, 5048, 5058, 5068, 5078, 5088
 5134, 5150, 5187, 5197, 5207, 5217, 5227, 5237, 5247, 5293, 5309, 5346, 5356, 5366, 5376, 5386
 5396, 5406, 5452, 5468, 5505, 5515, 5525, 5535, 5545, 5555, 5565, 5611, 5627, 5664, 5674, 5684
 5694, 5704, 5714, 5724, 5770, 5786, 5823, 5833, 5843, 5853, 5863, 5873, 5883, 5929, 5945, 5982
 5992, 6002, 6012, 6022, 6032, 6042
*Elset, elset=__PickedSurf12_S6, internal, instance=Eulerian-1
   54,   55,   56,   61,   64,   68,   69,  213,  214,  215,  220,  223,  227,  228,  372,  373
  374,  379,  382,  386,  387,  531,  532,  533,  538,  541,  545,  546,  690,  691,  692,  697
  700,  704,  705,  849,  850,  851,  856,  859,  863,  864, 1008, 1009, 1010, 1015, 1018, 1022
 1023, 1167, 1168, 1169, 1174, 1177, 1181, 1182, 1326, 1327, 1328, 1333, 1336, 1340, 1341, 1485
 1486, 1487, 1492, 1495, 1499, 1500, 1644, 1645, 1646, 1651, 1654, 1658, 1659, 1803, 1804, 1805
 1810, 1813, 1817, 1818, 1962, 1963, 1964, 1969, 1972, 1976, 1977, 2121, 2122, 2123, 2128, 2131
 2135, 2136, 2280, 2281, 2282, 2287, 2290, 2294, 2295, 2439, 2440, 2441, 2446, 2449, 2453, 2454
 2598, 2599, 2600, 2605, 2608, 2612, 2613, 2757, 2758, 2759, 2764, 2767, 2771, 2772, 2916, 2917
 2918, 2923, 2926, 2930, 2931, 3075, 3076, 3077, 3082, 3085, 3089, 3090, 3234, 3235, 3236, 3241
 3244, 3248, 3249, 3393, 3394, 3395, 3400, 3403, 3407, 3408, 3552, 3553, 3554, 3559, 3562, 3566
 3567, 3711, 3712, 3713, 3718, 3721, 3725, 3726, 3870, 3871, 3872, 3877, 3880, 3884, 3885, 4029
 4030, 4031, 4036, 4039, 4043, 4044, 4188, 4189, 4190, 4195, 4198, 4202, 4203, 4347, 4348, 4349
 4354, 4357, 4361, 4362, 4506, 4507, 4508, 4513, 4516, 4520, 4521, 4665, 4666, 4667, 4672, 4675
 4679, 4680, 4824, 4825, 4826, 4831, 4834, 4838, 4839, 4983, 4984, 4985, 4990, 4993, 4997, 4998
 5142, 5143, 5144, 5149, 5152, 5156, 5157, 5301, 5302, 5303, 5308, 5311, 5315, 5316, 5460, 5461
 5462, 5467, 5470, 5474, 5475, 5619, 5620, 5621, 5626, 5629, 5633, 5634, 5778, 5779, 5780, 5785
 5788, 5792, 5793, 5937, 5938, 5939, 5944, 5947, 5951, 5952
*Elset, elset=__PickedSurf12_S3, internal, instance=Eulerian-1, generate
   70,  5953,   159
*Surface, type=ELEMENT, name=_PickedSurf12, internal
__PickedSurf12_S4, S4
__PickedSurf12_S6, S6
__PickedSurf12_S3, S3
*End Assembly
** 
** ELEMENT CONTROLS
** 
*Section Controls, name=EC-1, second order accuracy=YES
1., 1., 1.
*Section Controls, name=EC-2, hourglass=ENHANCED, second order accuracy=YES
1., 1., 1.
*Amplitude, name=Amp-1
             0.,              1.,           0.003,              1.,          0.0031,              0.,             0.1,              0.
*Amplitude, name=ZeroPWorkaround
             0.,              0.,              2.,              0.
** 
** MATERIALS
** 
*Material, name=Fluid
*Density
1000.,
*Viscosity
 0.003,
*Eos, type=USER, PROPERTIES=2
150, 7.15
*Material, name=Solid
*Density
1200.,
*Hyperelastic, neo hooke
57690.,0.
** 
** INTERACTION PROPERTIES
** 
*Surface Interaction, name=Contact
** 
** BOUNDARY CONDITIONS
** 
** Name: LagrangeSymmetry1_trueY Type: Symmetry/Antisymmetry/Encastre
*Boundary
LagrangeYSymmNodes, YSYMM
** Name: LagrangeSymmetry2_UserZ Type: Symmetry/Antisymmetry/Encastre
*Boundary
LagrangeXSymmNodes, XSYMM
** 
** PREDEFINED FIELDS
** 
** Name: MaterialFraction   Type: Material assignment
*Initial Conditions, type=VOLUME FRACTION
_PickedSet97, Eulerian-1.fluid-1, 1.
** ----------------------------------------------------------------
** 
** STEP: Step-1
** 
*Step, name=Step-1, nlgeom=YES
Pressure on
*Dynamic, Explicit
, 0.02
*Bulk Viscosity
0.06, 1.2
** 
** BOUNDARY CONDITIONS
** 
** Name: EulerCurved Type: Eulerian boundary
*Eulerian Boundary, inflow=FREE, outflow=ZERO PRESSURE
Euler_CurvedOuter
** Name: EulerInlet_Extern Type: Eulerian boundary
*Eulerian Boundary, inflow=FREE, outflow=ZERO PRESSURE
Inlet_ZeroP
** Name: Euler_Inlet Type: Eulerian boundary
*Eulerian Boundary, inflow=FREE
Inlet
** Name: Euler_Outlet Type: Eulerian boundary
*Eulerian Boundary, outflow=ZERO PRESSURE
Outlet
** Name: LagrangeInlet Type: Symmetry/Antisymmetry/Encastre
*Boundary
LagrangeInletNodes, ENCASTRE
** Name: LagrangeOutlet Type: Symmetry/Antisymmetry/Encastre
*Boundary
LagrangeOutletNodes, ENCASTRE
** Name: Symmetry1 Type: Eulerian boundary
*Eulerian Boundary, inflow=NONE, outflow=NONE
_PickedSurf11
** Name: Symmetry2 Type: Eulerian boundary
*Eulerian Boundary, inflow=NONE, outflow=NONE
_PickedSurf12
** 
** LOADS
** 
** Name: PZeroCurved   Type: Pressure
*Dsload, amplitude=ZeroPWorkaround
Euler_CurvedOuter, P, 1.
** Name: PZeroIn   Type: Pressure
*Dsload, amplitude=ZeroPWorkaround
Inlet_ZeroP, P, 1.
** Name: PZeroOut   Type: Pressure
*Dsload, amplitude=ZeroPWorkaround
Outlet, P, 1.
** Name: Pressurein   Type: Pressure
*Dsload, amplitude=Amp-1
Inlet, P, 1333.3
** 
** INTERACTIONS
** 
** Interaction: Interaction
*Contact, op=NEW
*Contact Inclusions, ALL EXTERIOR
*Contact Property Assignment
 ,  , Contact
** 
** OUTPUT REQUESTS
** 
*Restart, write, number interval=1, time marks=NO
** 
** FIELD OUTPUT: F-Output-1
** 
*Output, field, number interval=100
*Node Output
A, RF, U, V
*Element Output, directions=YES
DENSITY, EVF, LE, MFL, P, PE, PEEQ, PEEQVAVG, PEVAVG, S, SVAVG
*Contact Output
CSTRESS, 
** 
** HISTORY OUTPUT: H-Output-1
** 
*Output, history, variable=PRESELECT
*End Step
