*Heading
** Job name: BCFlap_6__FineMesh__c0_150 Model name: Model-1
** Generated by: Abaqus/CAE 2023
*Preprint, echo=NO, model=NO, history=NO, contact=NO
**
** PARTS
**
*Part, name=Eulerian
*Node
      1,   1.44000006,           2.,  0.100000001
      2,   1.44000006,           0.,  0.100000001
      3,           3.,           0.,  0.100000001
      4,           3.,           4.,  0.100000001
      5,          -3.,           4.,  0.100000001
      6,          -3.,           0.,  0.100000001
      7,  -1.44000006,           0.,  0.100000001
      8,  -1.44000006,           2.,  0.100000001
      9, -0.720000029,           0.,  0.100000001
     10, -0.720000029,   1.27999997,  0.100000001
     11,  0.720000029,   1.27999997,  0.100000001
     12,  0.720000029,           0.,  0.100000001
     13,   1.44000006,   1.92307687,  0.100000001
     14,   1.44000006,   1.84615386,  0.100000001
     15,   1.44000006,   1.76923072,  0.100000001
     16,   1.44000006,   1.69230771,  0.100000001
     17,   1.44000006,   1.61538458,  0.100000001
     18,   1.44000006,   1.53846157,  0.100000001
     19,   1.44000006,   1.46153843,  0.100000001
     20,   1.44000006,   1.38461542,  0.100000001
** ... 4468 like lines cut
*Element, type=EC3D8R
   1,  514, 1158,   34,   33, 2758, 3402, 2278, 2277
   2,  319,  458,   36,   35, 2563, 2702, 2280, 2279
   3,  785,  470,  458,  649, 3029, 2714, 2702, 2893
   4,   40,   39,  785, 1167, 2284, 2283, 3029, 3411
   5,  686,  315,  729,  731, 2930, 2559, 2973, 2975
   6,  699, 1190,  667, 1213, 2943, 3434, 2911, 3457
   7, 1214,  714,  779,  742, 3458, 2958, 3023, 2986
   8, 1214,  696,  771,  714, 3458, 2940, 3015, 2958
   9,  748, 1278, 1256,  724, 2992, 3522, 3500, 2968
  10,  750,  716, 1193,  299, 2994, 2960, 3437, 2543
  11,  325,  937, 1219,  756, 2569, 3181, 3463, 3000
  12,  959,  324,  937,  951, 3203, 2568, 3181, 3195
  13,  348,  874, 1269,  892, 2592, 3118, 3513, 3136
  14,  384, 1152,  910, 1298, 2628, 3396, 3154, 3542
  15,  403, 1151,  385,  404, 2647, 3395, 2629, 2648
  16, 1139,  418, 1143, 1039, 3383, 2662, 3387, 3283
  17,   70,   69, 1139, 1039, 2314, 2313, 3383, 3283
  18, 1039, 1016,   71,   70, 3283, 3260, 2315, 2314
  19,   72,   71, 1016, 1128, 2316, 2315, 3260, 3372
  20,  419, 1071, 1146,  405, 2663, 3315, 3390, 2649
** ... 2161 like lines cut
*Nset, nset=Eulerian, generate
    1,  4488,     1
*Elset, elset=Eulerian, generate
    1,  2181,     1
*Nset, nset=_PickedSet9, internal, generate
    1,  4488,     1
*Elset, elset=_PickedSet9, internal, generate
    1,  2181,     1
** Section: Eulerian
*Eulerian Section, elset=_PickedSet9, controls=EC-1
Water, water-1
*Surface, type=EULERIAN MATERIAL, name=water-1
water-1
*End Part
**  
*Part, name=Flap
*Node
      1, 0.0500000007,           1.,  0.100000001
      2, 0.0500000007,  0.975000024,  0.100000001
      3, 0.0500000007,  0.949999988,  0.100000001
      4, 0.0500000007,  0.925000012,  0.100000001
      5, 0.0500000007,  0.899999976,  0.100000001
      6, 0.0500000007,        0.875,  0.100000001
      7, 0.0500000007,  0.850000024,  0.100000001
      8, 0.0500000007,  0.824999988,  0.100000001
      9, 0.0500000007,  0.800000012,  0.100000001
     10, 0.0500000007,  0.774999976,  0.100000001
     11, 0.0500000007,         0.75,  0.100000001
     12, 0.0500000007,  0.725000024,  0.100000001
     13, 0.0500000007,  0.699999988,  0.100000001
     14, 0.0500000007,  0.675000012,  0.100000001
     15, 0.0500000007,  0.649999976,  0.100000001
     16, 0.0500000007,        0.625,  0.100000001
     17, 0.0500000007,  0.600000024,  0.100000001
     18, 0.0500000007,  0.574999988,  0.100000001
     19, 0.0500000007,  0.550000012,  0.100000001
     20, 0.0500000007,  0.524999976,  0.100000001
** ... 1005 like lines cut
*Element, type=C3D8R
  1,  206,  207,  248,  247,    1,    2,   43,   42
  2,  207,  208,  249,  248,    2,    3,   44,   43
  3,  208,  209,  250,  249,    3,    4,   45,   44
  4,  209,  210,  251,  250,    4,    5,   46,   45
  5,  210,  211,  252,  251,    5,    6,   47,   46
  6,  211,  212,  253,  252,    6,    7,   48,   47
  7,  212,  213,  254,  253,    7,    8,   49,   48
  8,  213,  214,  255,  254,    8,    9,   50,   49
  9,  214,  215,  256,  255,    9,   10,   51,   50
 10,  215,  216,  257,  256,   10,   11,   52,   51
 11,  216,  217,  258,  257,   11,   12,   53,   52
 12,  217,  218,  259,  258,   12,   13,   54,   53
 13,  218,  219,  260,  259,   13,   14,   55,   54
 14,  219,  220,  261,  260,   14,   15,   56,   55
 15,  220,  221,  262,  261,   15,   16,   57,   56
 16,  221,  222,  263,  262,   16,   17,   58,   57
 17,  222,  223,  264,  263,   17,   18,   59,   58
 18,  223,  224,  265,  264,   18,   19,   60,   59
 19,  224,  225,  266,  265,   19,   20,   61,   60
 20,  225,  226,  267,  266,   20,   21,   62,   61
** ... 620 like lines cut
*Nset, nset=Flap, generate
    1,  1025,     1
*Elset, elset=Flap, generate
   1,  640,    1
*Nset, nset=_PickedSet4, internal, generate
    1,  1025,     1
*Elset, elset=_PickedSet4, internal, generate
   1,  640,    1
*Nset, nset=Flap_Symm
 207, 208, 209, 210, 211, 212, 213, 214, 215, 216, 217, 218, 219, 220, 221, 222
 223, 224, 225, 226, 227, 228, 229, 230, 231, 232, 233, 234, 235, 236, 237, 238
 239, 240, 241, 242, 243, 244, 245, 371, 372, 373, 374, 375, 376, 377, 378, 379
 380, 381, 382, 383, 384, 385, 386, 387, 388, 389, 390, 391, 392, 393, 394, 395
 396, 397, 398, 399, 400, 401, 402, 403, 404, 405, 406, 407, 408, 409, 412, 413
 414, 415, 416, 417, 418, 419, 420, 421, 422, 423, 424, 425, 426, 427, 428, 429
 430, 431, 432, 433, 434, 435, 436, 437, 438, 439, 440, 441, 442, 443, 444, 445
 446, 447, 448, 449, 450, 576, 577, 578, 579, 580, 581, 582, 583, 584, 585, 586
 587, 588, 589, 590, 591, 592, 593, 594, 595, 596, 597, 598, 599, 600, 601, 602
 603, 604, 605, 606, 607, 608, 609, 610, 611, 612, 613, 614, 617, 618, 619, 620
 621, 622, 623, 624, 625, 626, 627, 628, 629, 630, 631, 632, 633, 634, 635, 636
 637, 638, 639, 640, 641, 642, 643, 644, 645, 646, 647, 648, 649, 650, 651, 652
 653, 654, 655, 781, 782, 783, 784, 785, 786, 787, 788, 789, 790, 791, 792, 793
 794, 795, 796, 797, 798, 799, 800, 801, 802, 803, 804, 805, 806, 807, 808, 809
 810, 811, 812, 813, 814, 815, 816, 817, 818, 819
*Nset, nset=Flap_NoSlip
    1,    2,    3,    4,    5,    6,    7,    8,    9,   10,   11,   12,   13,   14,   15,   16
   17,   18,   19,   20,   21,   22,   23,   24,   25,   26,   27,   28,   29,   30,   31,   32
   33,   34,   35,   36,   37,   38,   39,   40,   42,   43,   44,   45,   46,   47,   48,   49
   50,   51,   52,   53,   54,   55,   56,   57,   58,   59,   60,   61,   62,   63,   64,   65
   66,   67,   68,   69,   70,   71,   72,   73,   74,   75,   76,   77,   78,   79,   80,   81
   83,   84,   85,   86,   87,   88,   89,   90,   91,   92,   93,   94,   95,   96,   97,   98
   99,  100,  101,  102,  103,  104,  105,  106,  107,  108,  109,  110,  111,  112,  113,  114
  115,  116,  117,  118,  119,  120,  121,  122,  124,  125,  126,  127,  128,  129,  130,  131
  132,  133,  134,  135,  136,  137,  138,  139,  140,  141,  142,  143,  144,  145,  146,  147
  148,  149,  150,  151,  152,  153,  154,  155,  156,  157,  158,  159,  160,  161,  162,  163
  165,  166,  167,  168,  169,  170,  171,  172,  173,  174,  175,  176,  177,  178,  179,  180
  181,  182,  183,  184,  185,  186,  187,  188,  189,  190,  191,  192,  193,  194,  195,  196
  197,  198,  199,  200,  201,  202,  203,  204,  206,  247,  288,  329,  370,  411,  452,  493
  534,  575,  616,  657,  698,  739,  780,  821,  822,  823,  824,  825,  826,  827,  828,  829
  830,  831,  832,  833,  834,  835,  836,  837,  838,  839,  840,  841,  842,  843,  844,  845
  846,  847,  848,  849,  850,  851,  852,  853,  854,  855,  856,  857,  858,  859,  860,  862
  863,  864,  865,  866,  867,  868,  869,  870,  871,  872,  873,  874,  875,  876,  877,  878
  879,  880,  881,  882,  883,  884,  885,  886,  887,  888,  889,  890,  891,  892,  893,  894
  895,  896,  897,  898,  899,  900,  901,  903,  904,  905,  906,  907,  908,  909,  910,  911
  912,  913,  914,  915,  916,  917,  918,  919,  920,  921,  922,  923,  924,  925,  926,  927
** ... 6 like lines cut
*Nset, nset=Disp_node
 493,
** Section: Solid
*Solid Section, elset=_PickedSet4, controls=EC-2, material=Solid
,
*End Part
**  
**
** ASSEMBLY
**
*Assembly, name=Assembly
**  
*Instance, name=Eulerian-1, part=Eulerian
*End Instance
**  
*Instance, name=Flap-1, part=Flap
*End Instance
**  
*Nset, nset=BotWall, instance=Eulerian-1
    2,    3,    6,    7,    9,   12,   38,   39,   40,   41,   42,   43,   44,   45,  113,  114
  115,  116,  117,  118,  119,  173,  174,  175,  260,  261,  262,  263,  264,  265,  266,  267
  268,  269,  270,  271,  272,  273,  274,  275,  276,  277,  278,  279,  280,  281,  282,  283
  284,  285,  286,  287,  288,  289,  290, 2246, 2247, 2250, 2251, 2253, 2256, 2282, 2283, 2284
 2285, 2286, 2287, 2288, 2289, 2357, 2358, 2359, 2360, 2361, 2362, 2363, 2417, 2418, 2419, 2504
 2505, 2506, 2507, 2508, 2509, 2510, 2511, 2512, 2513, 2514, 2515, 2516, 2517, 2518, 2519, 2520
 2521, 2522, 2523, 2524, 2525, 2526, 2527, 2528, 2529, 2530, 2531, 2532, 2533, 2534
*Elset, elset=BotWall, instance=Eulerian-1
    4,   53,   68,  117,  176,  177,  190,  392,  393,  405,  406,  407,  408,  443,  739,  958
  961, 1129, 1155, 1181, 1207, 1349, 1375, 1401, 1427, 1428, 1454, 1480, 1506, 1532, 1558, 1584
 1610, 1636, 1662, 1688, 1714, 1740, 1766, 1792, 1818, 1844, 1870, 1896, 1922, 1948, 1974, 2000
 2026, 2052, 2078, 2104, 2130, 2156
*Nset, nset=TopWall, instance=Eulerian-1
    4,    5,   65,   66,   67,   68,   69,   70,   71,   72,   73,   74,   75,   76,   77,   78
   79,   80,   81,   82,   83,   84,   85,   86,   87,   88,   89,   90,   91,   92,   93, 2248
 2249, 2309, 2310, 2311, 2312, 2313, 2314, 2315, 2316, 2317, 2318, 2319, 2320, 2321, 2322, 2323
 2324, 2325, 2326, 2327, 2328, 2329, 2330, 2331, 2332, 2333, 2334, 2335, 2336, 2337
*Elset, elset=TopWall, instance=Eulerian-1
   17,   18,   19,   51,   52,   67,   84,  102,  104,  136,  143,  144,  145,  146,  147,  156
  157,  158,  159,  346,  353,  354,  397,  398,  399,  400,  981, 1001, 1003, 1008
*Nset, nset=V_in, instance=Eulerian-1
    5,    6,   94,   95,   96,   97,   98,   99,  100,  101,  102,  103,  104,  105,  106,  107
  108,  109,  110,  111,  112, 2249, 2250, 2338, 2339, 2340, 2341, 2342, 2343, 2344, 2345, 2346
 2347, 2348, 2349, 2350, 2351, 2352, 2353, 2354, 2355, 2356
*Nset, nset=_PickedSet7, internal, instance=Eulerian-1, generate
    1,  4488,     1
*Elset, elset=_PickedSet7, internal, instance=Eulerian-1, generate
    1,  2181,     1
*Nset, nset=_PickedSet18, internal, instance=Flap-1, generate
   41,  1025,    41
*Elset, elset=_PickedSet18, internal, instance=Flap-1, generate
  40,  640,   40
*Elset, elset=_Outlet_S6, internal, instance=Eulerian-1
 66, 76, 84
*Elset, elset=_Outlet_S3, internal, instance=Eulerian-1
   69,   70,   75,   77,   78,  975,  977,  980,  992,  993,  994, 1041
*Elset, elset=_Outlet_S5, internal, instance=Eulerian-1
  71, 396, 976
*Elset, elset=_Outlet_S4, internal, instance=Eulerian-1
 393, 395
*Surface, type=ELEMENT, name=Outlet
_Outlet_S6, S6
_Outlet_S3, S3
_Outlet_S4, S4
_Outlet_S5, S5
*Elset, elset=__PickedSurf11_S6, internal, instance=Eulerian-1
 66, 76, 84
*Elset, elset=__PickedSurf11_S3, internal, instance=Eulerian-1
   69,   70,   75,   77,   78,  975,  977,  980,  992,  993,  994, 1041
*Elset, elset=__PickedSurf11_S5, internal, instance=Eulerian-1
  71, 396, 976
*Elset, elset=__PickedSurf11_S4, internal, instance=Eulerian-1
 393, 395
*Surface, type=ELEMENT, name=_PickedSurf11, internal
__PickedSurf11_S6, S6
__PickedSurf11_S3, S3
__PickedSurf11_S4, S4
__PickedSurf11_S5, S5
*Elset, elset=__PickedSurf12_S6, internal, instance=Eulerian-1
 116, 159, 160, 166, 174
*Elset, elset=__PickedSurf12_S4, internal, instance=Eulerian-1
  162,  169,  170,  401,  402,  404,  985,  986,  987,  998,  999, 1051
*Elset, elset=__PickedSurf12_S3, internal, instance=Eulerian-1
 176,
*Elset, elset=__PickedSurf12_S5, internal, instance=Eulerian-1
  403, 1064
*Surface, type=ELEMENT, name=_PickedSurf12, internal
__PickedSurf12_S6, S6
__PickedSurf12_S4, S4
__PickedSurf12_S3, S3
__PickedSurf12_S5, S5
*Elset, elset=__PickedSurf13_S1, internal, instance=Eulerian-1, generate
    1,  2181,     1
*Elset, elset=__PickedSurf13_S2, internal, instance=Eulerian-1, generate
    1,  2181,     1
*Surface, type=ELEMENT, name=_PickedSurf13, internal
__PickedSurf13_S1, S1
__PickedSurf13_S2, S2
*End Assembly
** 
** ELEMENT CONTROLS
** 
*Section Controls, name=EC-1, second order accuracy=YES
1., 1., 1.
*Section Controls, name=EC-2, second order accuracy=YES
1., 1., 1.
*Amplitude, name=Ramp_In, definition=SMOOTH STEP
             0.,              0.,             0.1,              1.
** 
** MATERIALS
** 
*Material, name=Solid
*Density
3000.,
*Elastic
 4e+06, 0.3
*Material, name=Water
*Density
1.,
*Eos, type = USER, PROPERTIES=2
1500, 7.15
*Viscosity
1.,
** 
** INTERACTION PROPERTIES
** 
*Surface Interaction, name=InteractionProp
*Friction
0.,
** 
** PREDEFINED FIELDS
** 
** Name: MaterialAss   Type: Material assignment
*Initial Conditions, type=VOLUME FRACTION
_PickedSet7, Eulerian-1.water-1, 1.
** ----------------------------------------------------------------
** 
** STEP: Step-1
** 
*Step, name=Step-1, nlgeom=YES
*Dynamic, Explicit
, 5.
*Bulk Viscosity
0.06, 1.2
** 
** BOUNDARY CONDITIONS
** 
** Name: BottomWall Type: Velocity/Angular velocity
*Boundary, type=VELOCITY
BotWall, 2, 2
** Name: Euler_Symm Type: Eulerian boundary
*Eulerian Boundary, inflow=NONE, outflow=NONE
_PickedSurf13
** Name: Euler_in Type: Eulerian boundary
*Eulerian Boundary, inflow=FREE
_PickedSurf12
** Name: Euler_out Type: Eulerian boundary
*Eulerian Boundary, outflow=FREE
_PickedSurf11
** Name: Flap_Base Type: Symmetry/Antisymmetry/Encastre
*Boundary
_PickedSet18, ENCASTRE
** Name: Flap_MoveConst Type: Velocity/Angular velocity
*Boundary, type=VELOCITY
Flap-1.Flap_NoSlip, 3, 3
Flap-1.Flap_NoSlip, 4, 4
Flap-1.Flap_NoSlip, 5, 5
** Name: Flap_Symm Type: Symmetry/Antisymmetry/Encastre
*Boundary
Flap-1.Flap_Symm, ZSYMM
** Name: Top_Wall Type: Velocity/Angular velocity
*Boundary, type=VELOCITY
TopWall, 2, 2
** Name: V_in Type: Velocity/Angular velocity
*Boundary, amplitude=Ramp_In, type=VELOCITY
V_in, 1, 1, 10.
** 
** LOADS
** 
** Name: Out_P   Type: Pressure
*Dsload
Outlet, P, 1e-06
** 
** INTERACTIONS
** 
** Interaction: Interaction
*Contact, op=NEW
*Contact Inclusions, ALL EXTERIOR
*Contact Property Assignment
 ,  , InteractionProp
** 
** OUTPUT REQUESTS
** 
*Restart, write, number interval=1, time marks=NO
** 
** FIELD OUTPUT: F-Output-1
** 
*Output, field, number interval=50
*Node Output
A, RF, U, V
*Element Output, directions=YES
DENSITY, EVF, LE, PE, PEEQ, PEEQVAVG, PEVAVG, S, SVAVG
*Contact Output
CSTRESS, 
** 
** HISTORY OUTPUT: x_Disp
** 
*Output, history
*Node Output, nset=Flap-1.Disp_node
U1, 
** 
** HISTORY OUTPUT: H-Output-1
** 
*Output, history, variable=PRESELECT
*End Step
