*Heading
** Job name: ETubePerfectAlign Model name: Model-1
** Generated by: Abaqus/CAE 2023
*Preprint, echo=NO, model=NO, history=NO, contact=NO
**
** PARTS
**
*Part, name=Eulerian
*Node
      1,           0., 0.00549999997, 0.0500000007
      2, 0.00549999997,           0., 0.0500000007
      3, 0.00600000005,           0., 0.0500000007
      4,           0., 0.00600000005, 0.0500000007
      5,           0., 0.00499999989, 0.0500000007
      6, 0.00499999989,           0., 0.0500000007
      7,           0., 0.00449999981, 0.0500000007
      8, 0.00318198046, 0.00318198046, 0.0500000007
      9, 0.00449999981,           0., 0.0500000007
     10,           0.,           0., 0.0500000007
     11, 0.000860389555, 0.00543228583, 0.0500000007
     12, 0.0016995935, 0.00523081096, 0.0500000007
     13, 0.00249694777, 0.00490053603, 0.0500000007
     14, 0.0032328188, 0.00444959337, 0.0500000007
     15, 0.00388908735, 0.00388908735, 0.0500000007
     16, 0.00444959337, 0.0032328188, 0.0500000007
     17, 0.00490053603, 0.00249694777, 0.0500000007
     18, 0.00523081096, 0.0016995935, 0.0500000007
     19, 0.00543228583, 0.000860389555, 0.0500000007
     20, 0.00575000001,           0., 0.0500000007
** ... 6688 like lines cut
*Element, type=EC3D8R
   1,   30,   80,   11,    1,  202,  252,  183,  173
   2,   80,   81,   12,   11,  252,  253,  184,  183
   3,   81,   82,   13,   12,  253,  254,  185,  184
   4,   82,   83,   14,   13,  254,  255,  186,  185
   5,   83,   84,   15,   14,  255,  256,  187,  186
   6,   84,   85,   16,   15,  256,  257,  188,  187
   7,   85,   86,   17,   16,  257,  258,  189,  188
   8,   86,   87,   18,   17,  258,  259,  190,  189
   9,   87,   88,   19,   18,  259,  260,  191,  190
  10,   88,   20,    2,   19,  260,  192,  174,  191
  11,    4,   29,   80,   30,  176,  201,  252,  202
  12,   29,   28,   81,   80,  201,  200,  253,  252
  13,   28,   27,   82,   81,  200,  199,  254,  253
  14,   27,   26,   83,   82,  199,  198,  255,  254
  15,   26,   25,   84,   83,  198,  197,  256,  255
  16,   25,   24,   85,   84,  197,  196,  257,  256
  17,   24,   23,   86,   85,  196,  195,  258,  257
  18,   23,   22,   87,   86,  195,  194,  259,  258
  19,   22,   21,   88,   87,  194,  193,  260,  259
  20,   21,    3,   20,   88,  193,  175,  192,  260
** ... 5680 like lines cut
*Nset, nset=Set-1, generate
    1,  6708,     1
*Elset, elset=Set-1, generate
    1,  5700,     1
** Section: EulerianSection
*Eulerian Section, elset=Set-1, controls=EC-1
Fluid, fluid-1
*Surface, type=EULERIAN MATERIAL, name=fluid-1
fluid-1
*End Part
**  
*Part, name=Lagrangian
*Node
      1, 0.00600000005,           0., 0.0500000007
      2, 0.00549999997,           0., 0.0500000007
      3, 0.00499999989,           0., 0.0500000007
      4, 0.00600000005,           0.,  0.049342107
      5, 0.00549999997,           0.,  0.049342107
      6, 0.00499999989,           0.,  0.049342107
      7, 0.00600000005,           0., 0.0486842096
      8, 0.00549999997,           0., 0.0486842096
      9, 0.00499999989,           0., 0.0486842096
     10, 0.00600000005,           0., 0.0480263159
     11, 0.00549999997,           0., 0.0480263159
     12, 0.00499999989,           0., 0.0480263159
     13, 0.00600000005,           0., 0.0473684222
     14, 0.00549999997,           0., 0.0473684222
     15, 0.00499999989,           0., 0.0473684222
     16, 0.00600000005,           0., 0.0467105247
     17, 0.00549999997,           0., 0.0467105247
     18, 0.00499999989,           0., 0.0467105247
     19, 0.00600000005,           0.,  0.046052631
     20, 0.00549999997,           0.,  0.046052631
** ... 4831 like lines cut
*Element, type=C3D8R
   1,  232,  233,  236,  235,    1,    2,    5,    4
   2,  233,  234,  237,  236,    2,    3,    6,    5
   3,  235,  236,  239,  238,    4,    5,    8,    7
   4,  236,  237,  240,  239,    5,    6,    9,    8
   5,  238,  239,  242,  241,    7,    8,   11,   10
   6,  239,  240,  243,  242,    8,    9,   12,   11
   7,  241,  242,  245,  244,   10,   11,   14,   13
   8,  242,  243,  246,  245,   11,   12,   15,   14
   9,  244,  245,  248,  247,   13,   14,   17,   16
  10,  245,  246,  249,  248,   14,   15,   18,   17
  11,  247,  248,  251,  250,   16,   17,   20,   19
  12,  248,  249,  252,  251,   17,   18,   21,   20
  13,  250,  251,  254,  253,   19,   20,   23,   22
  14,  251,  252,  255,  254,   20,   21,   24,   23
  15,  253,  254,  257,  256,   22,   23,   26,   25
  16,  254,  255,  258,  257,   23,   24,   27,   26
  17,  256,  257,  260,  259,   25,   26,   29,   28
  18,  257,  258,  261,  260,   26,   27,   30,   29
  19,  259,  260,  263,  262,   28,   29,   32,   31
  20,  260,  261,  264,  263,   29,   30,   33,   32
** ... 3020 like lines cut
*Nset, nset=_PickedSet2, internal, generate
    1,  4851,     1
*Elset, elset=_PickedSet2, internal, generate
    1,  3040,     1
** Section: LagrangianSection
*Solid Section, elset=_PickedSet2, controls=EC-2, material=Solid
,
*End Part
**  
**
** ASSEMBLY
**
*Assembly, name=Assembly
**  
*Instance, name=Eulerian-1, part=Eulerian
*End Instance
**  
*Instance, name=Lagrangian-1, part=Lagrangian
*End Instance
**  
*Nset, nset=LagrangeInletNodes, instance=Lagrangian-1
  229,  230,  231,  460,  461,  462,  691,  692,  693,  922,  923,  924, 1153, 1154, 1155, 1384
 1385, 1386, 1615, 1616, 1617, 1846, 1847, 1848, 2077, 2078, 2079, 2308, 2309, 2310, 2539, 2540
 2541, 2770, 2771, 2772, 3001, 3002, 3003, 3232, 3233, 3234, 3463, 3464, 3465, 3694, 3695, 3696
 3925, 3926, 3927, 4156, 4157, 4158, 4387, 4388, 4389, 4618, 4619, 4620, 4849, 4850, 4851
*Nset, nset=LagrangeOutletNodes, instance=Lagrangian-1
    1,    2,    3,  232,  233,  234,  463,  464,  465,  694,  695,  696,  925,  926,  927, 1156
 1157, 1158, 1387, 1388, 1389, 1618, 1619, 1620, 1849, 1850, 1851, 2080, 2081, 2082, 2311, 2312
 2313, 2542, 2543, 2544, 2773, 2774, 2775, 3004, 3005, 3006, 3235, 3236, 3237, 3466, 3467, 3468
 3697, 3698, 3699, 3928, 3929, 3930, 4159, 4160, 4161, 4390, 4391, 4392, 4621, 4622, 4623
*Nset, nset=LagrangeXSymmNodes, instance=Lagrangian-1, generate
 4624,  4848,     1
*Nset, nset=LagrangeYSymmNodes, instance=Lagrangian-1, generate
   4,  228,    1
*Nset, nset=Wall, instance=Lagrangian-1, generate
    3,  4851,     3
*Elset, elset=Wall, instance=Lagrangian-1, generate
    2,  3040,     2
*Nset, nset=_PickedSet97, internal, instance=Eulerian-1, generate
    1,  6708,     1
*Elset, elset=_PickedSet97, internal, instance=Eulerian-1, generate
    1,  5700,     1
*Elset, elset=_Euler_CurvedOuter_S3, internal, instance=Eulerian-1
   11,   12,   13,   14,   15,   16,   17,   18,   19,   20,  161,  162,  163,  164,  165,  166
  167,  168,  169,  170,  311,  312,  313,  314,  315,  316,  317,  318,  319,  320,  461,  462
  463,  464,  465,  466,  467,  468,  469,  470,  611,  612,  613,  614,  615,  616,  617,  618
  619,  620,  761,  762,  763,  764,  765,  766,  767,  768,  769,  770,  911,  912,  913,  914
  915,  916,  917,  918,  919,  920, 1061, 1062, 1063, 1064, 1065, 1066, 1067, 1068, 1069, 1070
 1211, 1212, 1213, 1214, 1215, 1216, 1217, 1218, 1219, 1220, 1361, 1362, 1363, 1364, 1365, 1366
 1367, 1368, 1369, 1370, 1511, 1512, 1513, 1514, 1515, 1516, 1517, 1518, 1519, 1520, 1661, 1662
 1663, 1664, 1665, 1666, 1667, 1668, 1669, 1670, 1811, 1812, 1813, 1814, 1815, 1816, 1817, 1818
 1819, 1820, 1961, 1962, 1963, 1964, 1965, 1966, 1967, 1968, 1969, 1970, 2111, 2112, 2113, 2114
 2115, 2116, 2117, 2118, 2119, 2120, 2261, 2262, 2263, 2264, 2265, 2266, 2267, 2268, 2269, 2270
 2411, 2412, 2413, 2414, 2415, 2416, 2417, 2418, 2419, 2420, 2561, 2562, 2563, 2564, 2565, 2566
 2567, 2568, 2569, 2570, 2711, 2712, 2713, 2714, 2715, 2716, 2717, 2718, 2719, 2720, 2861, 2862
 2863, 2864, 2865, 2866, 2867, 2868, 2869, 2870, 3011, 3012, 3013, 3014, 3015, 3016, 3017, 3018
 3019, 3020, 3161, 3162, 3163, 3164, 3165, 3166, 3167, 3168, 3169, 3170, 3311, 3312, 3313, 3314
 3315, 3316, 3317, 3318, 3319, 3320, 3461, 3462, 3463, 3464, 3465, 3466, 3467, 3468, 3469, 3470
 3611, 3612, 3613, 3614, 3615, 3616, 3617, 3618, 3619, 3620, 3761, 3762, 3763, 3764, 3765, 3766
 3767, 3768, 3769, 3770, 3911, 3912, 3913, 3914, 3915, 3916, 3917, 3918, 3919, 3920, 4061, 4062
 4063, 4064, 4065, 4066, 4067, 4068, 4069, 4070, 4211, 4212, 4213, 4214, 4215, 4216, 4217, 4218
 4219, 4220, 4361, 4362, 4363, 4364, 4365, 4366, 4367, 4368, 4369, 4370, 4511, 4512, 4513, 4514
 4515, 4516, 4517, 4518, 4519, 4520, 4661, 4662, 4663, 4664, 4665, 4666, 4667, 4668, 4669, 4670
** ... 4 like lines cut
*Surface, type=ELEMENT, name=Euler_CurvedOuter
_Euler_CurvedOuter_S3, S3
*Elset, elset=_Inlet_S1, internal, instance=Eulerian-1, generate
   1,  150,    1
*Surface, type=ELEMENT, name=Inlet
_Inlet_S1, S1
*Elset, elset=_Outlet_S2, internal, instance=Eulerian-1, generate
 5551,  5700,     1
*Surface, type=ELEMENT, name=Outlet
_Outlet_S2, S2
*Elset, elset=__PickedSurf11_S6, internal, instance=Eulerian-1
    1,   11,   21,   31,   41,   51,  151,  161,  171,  181,  191,  201,  301,  311,  321,  331
  341,  351,  451,  461,  471,  481,  491,  501,  601,  611,  621,  631,  641,  651,  751,  761
  771,  781,  791,  801,  901,  911,  921,  931,  941,  951, 1051, 1061, 1071, 1081, 1091, 1101
 1201, 1211, 1221, 1231, 1241, 1251, 1351, 1361, 1371, 1381, 1391, 1401, 1501, 1511, 1521, 1531
 1541, 1551, 1651, 1661, 1671, 1681, 1691, 1701, 1801, 1811, 1821, 1831, 1841, 1851, 1951, 1961
 1971, 1981, 1991, 2001, 2101, 2111, 2121, 2131, 2141, 2151, 2251, 2261, 2271, 2281, 2291, 2301
 2401, 2411, 2421, 2431, 2441, 2451, 2551, 2561, 2571, 2581, 2591, 2601, 2701, 2711, 2721, 2731
 2741, 2751, 2851, 2861, 2871, 2881, 2891, 2901, 3001, 3011, 3021, 3031, 3041, 3051, 3151, 3161
 3171, 3181, 3191, 3201, 3301, 3311, 3321, 3331, 3341, 3351, 3451, 3461, 3471, 3481, 3491, 3501
 3601, 3611, 3621, 3631, 3641, 3651, 3751, 3761, 3771, 3781, 3791, 3801, 3901, 3911, 3921, 3931
 3941, 3951, 4051, 4061, 4071, 4081, 4091, 4101, 4201, 4211, 4221, 4231, 4241, 4251, 4351, 4361
 4371, 4381, 4391, 4401, 4501, 4511, 4521, 4531, 4541, 4551, 4651, 4661, 4671, 4681, 4691, 4701
 4801, 4811, 4821, 4831, 4841, 4851, 4951, 4961, 4971, 4981, 4991, 5001, 5101, 5111, 5121, 5131
 5141, 5151, 5251, 5261, 5271, 5281, 5291, 5301, 5401, 5411, 5421, 5431, 5441, 5451, 5551, 5561
 5571, 5581, 5591, 5601
*Elset, elset=__PickedSurf11_S3, internal, instance=Eulerian-1
  112,  115,  126,  128,  130,  131,  262,  265,  276,  278,  280,  281,  412,  415,  426,  428
  430,  431,  562,  565,  576,  578,  580,  581,  712,  715,  726,  728,  730,  731,  862,  865
  876,  878,  880,  881, 1012, 1015, 1026, 1028, 1030, 1031, 1162, 1165, 1176, 1178, 1180, 1181
 1312, 1315, 1326, 1328, 1330, 1331, 1462, 1465, 1476, 1478, 1480, 1481, 1612, 1615, 1626, 1628
 1630, 1631, 1762, 1765, 1776, 1778, 1780, 1781, 1912, 1915, 1926, 1928, 1930, 1931, 2062, 2065
 2076, 2078, 2080, 2081, 2212, 2215, 2226, 2228, 2230, 2231, 2362, 2365, 2376, 2378, 2380, 2381
 2512, 2515, 2526, 2528, 2530, 2531, 2662, 2665, 2676, 2678, 2680, 2681, 2812, 2815, 2826, 2828
 2830, 2831, 2962, 2965, 2976, 2978, 2980, 2981, 3112, 3115, 3126, 3128, 3130, 3131, 3262, 3265
 3276, 3278, 3280, 3281, 3412, 3415, 3426, 3428, 3430, 3431, 3562, 3565, 3576, 3578, 3580, 3581
 3712, 3715, 3726, 3728, 3730, 3731, 3862, 3865, 3876, 3878, 3880, 3881, 4012, 4015, 4026, 4028
 4030, 4031, 4162, 4165, 4176, 4178, 4180, 4181, 4312, 4315, 4326, 4328, 4330, 4331, 4462, 4465
 4476, 4478, 4480, 4481, 4612, 4615, 4626, 4628, 4630, 4631, 4762, 4765, 4776, 4778, 4780, 4781
 4912, 4915, 4926, 4928, 4930, 4931, 5062, 5065, 5076, 5078, 5080, 5081, 5212, 5215, 5226, 5228
 5230, 5231, 5362, 5365, 5376, 5378, 5380, 5381, 5512, 5515, 5526, 5528, 5530, 5531, 5662, 5665
 5676, 5678, 5680, 5681
*Elset, elset=__PickedSurf11_S5, internal, instance=Eulerian-1
  121,  123,  124,  143,  271,  273,  274,  293,  421,  423,  424,  443,  571,  573,  574,  593
  721,  723,  724,  743,  871,  873,  874,  893, 1021, 1023, 1024, 1043, 1171, 1173, 1174, 1193
 1321, 1323, 1324, 1343, 1471, 1473, 1474, 1493, 1621, 1623, 1624, 1643, 1771, 1773, 1774, 1793
 1921, 1923, 1924, 1943, 2071, 2073, 2074, 2093, 2221, 2223, 2224, 2243, 2371, 2373, 2374, 2393
 2521, 2523, 2524, 2543, 2671, 2673, 2674, 2693, 2821, 2823, 2824, 2843, 2971, 2973, 2974, 2993
 3121, 3123, 3124, 3143, 3271, 3273, 3274, 3293, 3421, 3423, 3424, 3443, 3571, 3573, 3574, 3593
 3721, 3723, 3724, 3743, 3871, 3873, 3874, 3893, 4021, 4023, 4024, 4043, 4171, 4173, 4174, 4193
 4321, 4323, 4324, 4343, 4471, 4473, 4474, 4493, 4621, 4623, 4624, 4643, 4771, 4773, 4774, 4793
 4921, 4923, 4924, 4943, 5071, 5073, 5074, 5093, 5221, 5223, 5224, 5243, 5371, 5373, 5374, 5393
 5521, 5523, 5524, 5543, 5671, 5673, 5674, 5693
*Surface, type=ELEMENT, name=_PickedSurf11, internal
__PickedSurf11_S6, S6
__PickedSurf11_S3, S3
__PickedSurf11_S5, S5
*Elset, elset=__PickedSurf12_S4, internal, instance=Eulerian-1
   10,   20,   30,   40,   50,   60,   62,   77,  160,  170,  180,  190,  200,  210,  212,  227
  310,  320,  330,  340,  350,  360,  362,  377,  460,  470,  480,  490,  500,  510,  512,  527
  610,  620,  630,  640,  650,  660,  662,  677,  760,  770,  780,  790,  800,  810,  812,  827
  910,  920,  930,  940,  950,  960,  962,  977, 1060, 1070, 1080, 1090, 1100, 1110, 1112, 1127
 1210, 1220, 1230, 1240, 1250, 1260, 1262, 1277, 1360, 1370, 1380, 1390, 1400, 1410, 1412, 1427
 1510, 1520, 1530, 1540, 1550, 1560, 1562, 1577, 1660, 1670, 1680, 1690, 1700, 1710, 1712, 1727
 1810, 1820, 1830, 1840, 1850, 1860, 1862, 1877, 1960, 1970, 1980, 1990, 2000, 2010, 2012, 2027
 2110, 2120, 2130, 2140, 2150, 2160, 2162, 2177, 2260, 2270, 2280, 2290, 2300, 2310, 2312, 2327
 2410, 2420, 2430, 2440, 2450, 2460, 2462, 2477, 2560, 2570, 2580, 2590, 2600, 2610, 2612, 2627
 2710, 2720, 2730, 2740, 2750, 2760, 2762, 2777, 2860, 2870, 2880, 2890, 2900, 2910, 2912, 2927
 3010, 3020, 3030, 3040, 3050, 3060, 3062, 3077, 3160, 3170, 3180, 3190, 3200, 3210, 3212, 3227
 3310, 3320, 3330, 3340, 3350, 3360, 3362, 3377, 3460, 3470, 3480, 3490, 3500, 3510, 3512, 3527
 3610, 3620, 3630, 3640, 3650, 3660, 3662, 3677, 3760, 3770, 3780, 3790, 3800, 3810, 3812, 3827
 3910, 3920, 3930, 3940, 3950, 3960, 3962, 3977, 4060, 4070, 4080, 4090, 4100, 4110, 4112, 4127
 4210, 4220, 4230, 4240, 4250, 4260, 4262, 4277, 4360, 4370, 4380, 4390, 4400, 4410, 4412, 4427
 4510, 4520, 4530, 4540, 4550, 4560, 4562, 4577, 4660, 4670, 4680, 4690, 4700, 4710, 4712, 4727
 4810, 4820, 4830, 4840, 4850, 4860, 4862, 4877, 4960, 4970, 4980, 4990, 5000, 5010, 5012, 5027
 5110, 5120, 5130, 5140, 5150, 5160, 5162, 5177, 5260, 5270, 5280, 5290, 5300, 5310, 5312, 5327
 5410, 5420, 5430, 5440, 5450, 5460, 5462, 5477, 5560, 5570, 5580, 5590, 5600, 5610, 5612, 5627
*Elset, elset=__PickedSurf12_S6, internal, instance=Eulerian-1
   66,   70,   71,   73,   74,   75,   85,  216,  220,  221,  223,  224,  225,  235,  366,  370
  371,  373,  374,  375,  385,  516,  520,  521,  523,  524,  525,  535,  666,  670,  671,  673
  674,  675,  685,  816,  820,  821,  823,  824,  825,  835,  966,  970,  971,  973,  974,  975
  985, 1116, 1120, 1121, 1123, 1124, 1125, 1135, 1266, 1270, 1271, 1273, 1274, 1275, 1285, 1416
 1420, 1421, 1423, 1424, 1425, 1435, 1566, 1570, 1571, 1573, 1574, 1575, 1585, 1716, 1720, 1721
 1723, 1724, 1725, 1735, 1866, 1870, 1871, 1873, 1874, 1875, 1885, 2016, 2020, 2021, 2023, 2024
 2025, 2035, 2166, 2170, 2171, 2173, 2174, 2175, 2185, 2316, 2320, 2321, 2323, 2324, 2325, 2335
 2466, 2470, 2471, 2473, 2474, 2475, 2485, 2616, 2620, 2621, 2623, 2624, 2625, 2635, 2766, 2770
 2771, 2773, 2774, 2775, 2785, 2916, 2920, 2921, 2923, 2924, 2925, 2935, 3066, 3070, 3071, 3073
 3074, 3075, 3085, 3216, 3220, 3221, 3223, 3224, 3225, 3235, 3366, 3370, 3371, 3373, 3374, 3375
 3385, 3516, 3520, 3521, 3523, 3524, 3525, 3535, 3666, 3670, 3671, 3673, 3674, 3675, 3685, 3816
 3820, 3821, 3823, 3824, 3825, 3835, 3966, 3970, 3971, 3973, 3974, 3975, 3985, 4116, 4120, 4121
 4123, 4124, 4125, 4135, 4266, 4270, 4271, 4273, 4274, 4275, 4285, 4416, 4420, 4421, 4423, 4424
 4425, 4435, 4566, 4570, 4571, 4573, 4574, 4575, 4585, 4716, 4720, 4721, 4723, 4724, 4725, 4735
 4866, 4870, 4871, 4873, 4874, 4875, 4885, 5016, 5020, 5021, 5023, 5024, 5025, 5035, 5166, 5170
 5171, 5173, 5174, 5175, 5185, 5316, 5320, 5321, 5323, 5324, 5325, 5335, 5466, 5470, 5471, 5473
 5474, 5475, 5485, 5616, 5620, 5621, 5623, 5624, 5625, 5635
*Elset, elset=__PickedSurf12_S5, internal, instance=Eulerian-1, generate
   88,  5638,   150
*Surface, type=ELEMENT, name=_PickedSurf12, internal
__PickedSurf12_S4, S4
__PickedSurf12_S6, S6
__PickedSurf12_S5, S5
*End Assembly
** 
** ELEMENT CONTROLS
** 
*Section Controls, name=EC-1, second order accuracy=YES
1., 1., 1.
*Section Controls, name=EC-2, hourglass=ENHANCED, second order accuracy=YES
1., 1., 1.
*Amplitude, name=Amp-1
             0.,              1.,           0.003,              1.,          0.0031,              0.,             0.1,              0.
*Amplitude, name=ZeroPWorkaround
             0.,              0.,              2.,              0.
** 
** MATERIALS
** 
*Material, name=Fluid
*Density
1000.,
*Viscosity
 0.003,
*Eos, type=USER, PROPERTIES=2
150, 7.15
*Material, name=Solid
*Density
1200.,
*Hyperelastic, neo hooke
57690.,0.
** 
** INTERACTION PROPERTIES
** 
*Surface Interaction, name=Contact
** 
** BOUNDARY CONDITIONS
** 
** Name: LagrangeSymmetry1_trueY Type: Symmetry/Antisymmetry/Encastre
*Boundary
LagrangeYSymmNodes, YSYMM
** Name: LagrangeSymmetry2_UserZ Type: Symmetry/Antisymmetry/Encastre
*Boundary
LagrangeXSymmNodes, XSYMM
** 
** PREDEFINED FIELDS
** 
** Name: MaterialFraction   Type: Material assignment
*Initial Conditions, type=VOLUME FRACTION
_PickedSet97, Eulerian-1.fluid-1, 1.
** ----------------------------------------------------------------
** 
** STEP: Step-1
** 
*Step, name=Step-1, nlgeom=YES
Pressure on
*Dynamic, Explicit
, 0.02
*Bulk Viscosity
0.06, 1.2
** 
** BOUNDARY CONDITIONS
** 
** Name: Euler_Inlet Type: Eulerian boundary
*Eulerian Boundary, inflow=FREE
Inlet
** Name: Euler_Outlet Type: Eulerian boundary
*Eulerian Boundary, outflow=ZERO PRESSURE
Outlet
** Name: LagrangeInlet Type: Symmetry/Antisymmetry/Encastre
*Boundary
LagrangeInletNodes, ENCASTRE
** Name: LagrangeOutlet Type: Symmetry/Antisymmetry/Encastre
*Boundary
LagrangeOutletNodes, ENCASTRE
** Name: Symmetry1 Type: Eulerian boundary
*Eulerian Boundary, inflow=NONE, outflow=NONE
_PickedSurf11
** Name: Symmetry2 Type: Eulerian boundary
*Eulerian Boundary, inflow=NONE, outflow=NONE
_PickedSurf12
** 
** LOADS
** 
** Name: PZeroOut   Type: Pressure
*Dsload, amplitude=ZeroPWorkaround
Outlet, P, 1.
** Name: Pressurein   Type: Pressure
*Dsload, amplitude=Amp-1
Inlet, P, 1333.3
** 
** INTERACTIONS
** 
** Interaction: Interaction
*Contact, op=NEW
*Contact Inclusions, ALL EXTERIOR
*Contact Property Assignment
 ,  , Contact
** 
** OUTPUT REQUESTS
** 
*Restart, write, number interval=1, time marks=NO
** 
** FIELD OUTPUT: F-Output-1
** 
*Output, field, number interval=100
*Node Output
A, RF, U, V
*Element Output, directions=YES
DENSITY, EVF, LE, MFL, P, PE, PEEQ, PEEQVAVG, PEVAVG, S, SVAVG
*Contact Output
CSTRESS, 
** 
** HISTORY OUTPUT: H-Output-1
** 
*Output, history, variable=PRESELECT
*End Step
