*Heading
** Job name: ETubeNeoHookeContactInclusion Model name: Model-1
** Generated by: Abaqus/CAE 2023
*Preprint, echo=NO, model=NO, history=NO, contact=NO
**
** PARTS
**
*Part, name=Eulerian
*Node
      1, 0.00193198049, 0.00318198046, 0.0500000007
      2, -0.00124999997,           0., 0.0500000007
      3, 0.00325000007,           0., 0.0500000007
      4, -0.00124999997, 0.00549999997, 0.0500000007
      5, 0.00425000023,           0., 0.0500000007
      6, 0.00474999985,           0., 0.0500000007
      7, -0.00124999997, 0.00600000005, 0.0500000007
      8, -0.00124999997, 0.00499999989, 0.0500000007
      9, 0.00374999992,           0., 0.0500000007
     10, -0.00124999997, 0.00449999981, 0.0500000007
     11, 0.00524999993,           0., 0.0500000007
     12, -0.00124999997, 0.00650000013, 0.0500000007
     13, 0.00575000001,           0., 0.0500000007
     14, 0.00575000001, 0.00700000022, 0.0500000007
     15, -0.00124999997, 0.00700000022, 0.0500000007
     16, 0.0016427096, 0.00289270957, 0.0500000007
     17, 0.00135343859, 0.00260343868, 0.0500000007
     18, 0.00106416759, 0.00231416756, 0.0500000007
     19, 0.000774896704, 0.00202489668, 0.0500000007
     20, 0.000485625729, 0.00173562579, 0.0500000007
** ... 8677 like lines cut
*Element, type=EC3D8R
   1,  138,  111,   17,   16,  361,  334,  240,  239
   2,   19,   18,  115,  116,  242,  241,  338,  339
   3,  115,  125,  124,  116,  338,  348,  347,  339
   4,  135,   26,    2,   25,  358,  249,  225,  248
   5,  112,  137,  135,  136,  335,  360,  358,  359
   6,   24,   23,  113,  136,  247,  246,  336,  359
   7,   23,   22,  117,  113,  246,  245,  340,  336
   8,   30,  121,  120,   31,  253,  344,  343,  254
   9,   21,   20,  114,  110,  244,  243,  337,  333
  10,  116,  114,   20,   19,  339,  337,  243,  242
  11,   34,  140,   35,    3,  257,  363,  258,  226
  12,   36,   35,  140,  133,  259,  258,  363,  356
  13,   32,  119,  139,   33,  255,  342,  362,  256
  14,  118,  120,  131,  132,  341,  343,  354,  355
  15,   32,   31,  120,  119,  255,  254,  343,  342
  16,  122,  127,  130,  121,  345,  350,  353,  344
  17,  128,  123,  137,  112,  351,  346,  360,  335
  18,  137,   27,   26,  135,  360,  250,  249,  358
  19,   38,  138,   16,    1,  261,  361,  239,  224
  20,  110,  117,   22,   21,  333,  340,  245,  244
** ... 7390 like lines cut
*Nset, nset=Set-1, generate
    1,  8697,     1
*Elset, elset=Set-1, generate
    1,  7410,     1
** Section: EulerianSection
*Eulerian Section, elset=Set-1, controls=EC-1
Fluid, fluid-1
*Surface, type=EULERIAN MATERIAL, name=fluid-1
fluid-1
*End Part
**  
*Part, name=Lagrangian
*Node
      1, 0.00600000005,           0., 0.0500000007
      2, 0.00549999997,           0., 0.0500000007
      3, 0.00499999989,           0., 0.0500000007
      4, 0.00600000005,           0.,  0.049342107
      5, 0.00549999997,           0.,  0.049342107
      6, 0.00499999989,           0.,  0.049342107
      7, 0.00600000005,           0., 0.0486842096
      8, 0.00549999997,           0., 0.0486842096
      9, 0.00499999989,           0., 0.0486842096
     10, 0.00600000005,           0., 0.0480263159
     11, 0.00549999997,           0., 0.0480263159
     12, 0.00499999989,           0., 0.0480263159
     13, 0.00600000005,           0., 0.0473684222
     14, 0.00549999997,           0., 0.0473684222
     15, 0.00499999989,           0., 0.0473684222
     16, 0.00600000005,           0., 0.0467105247
     17, 0.00549999997,           0., 0.0467105247
     18, 0.00499999989,           0., 0.0467105247
     19, 0.00600000005,           0.,  0.046052631
     20, 0.00549999997,           0.,  0.046052631
** ... 4831 like lines cut
*Element, type=C3D8R
   1,  232,  233,  236,  235,    1,    2,    5,    4
   2,  233,  234,  237,  236,    2,    3,    6,    5
   3,  235,  236,  239,  238,    4,    5,    8,    7
   4,  236,  237,  240,  239,    5,    6,    9,    8
   5,  238,  239,  242,  241,    7,    8,   11,   10
   6,  239,  240,  243,  242,    8,    9,   12,   11
   7,  241,  242,  245,  244,   10,   11,   14,   13
   8,  242,  243,  246,  245,   11,   12,   15,   14
   9,  244,  245,  248,  247,   13,   14,   17,   16
  10,  245,  246,  249,  248,   14,   15,   18,   17
  11,  247,  248,  251,  250,   16,   17,   20,   19
  12,  248,  249,  252,  251,   17,   18,   21,   20
  13,  250,  251,  254,  253,   19,   20,   23,   22
  14,  251,  252,  255,  254,   20,   21,   24,   23
  15,  253,  254,  257,  256,   22,   23,   26,   25
  16,  254,  255,  258,  257,   23,   24,   27,   26
  17,  256,  257,  260,  259,   25,   26,   29,   28
  18,  257,  258,  261,  260,   26,   27,   30,   29
  19,  259,  260,  263,  262,   28,   29,   32,   31
  20,  260,  261,  264,  263,   29,   30,   33,   32
** ... 3020 like lines cut
*Nset, nset=_PickedSet2, internal, generate
    1,  4851,     1
*Elset, elset=_PickedSet2, internal, generate
    1,  3040,     1
** Section: NeoHookeSection
*Solid Section, elset=_PickedSet2, controls=EC-2, material=NeoHooke
,
*End Part
**  
**
** ASSEMBLY
**
*Assembly, name=Assembly
**  
*Instance, name=Eulerian-1, part=Eulerian
*End Instance
**  
*Instance, name=Lagrangian-1, part=Lagrangian
    -0.00125,           0.,           0.
*End Instance
**  
*Nset, nset=LagrangeInletNodes, instance=Lagrangian-1
  229,  230,  231,  460,  461,  462,  691,  692,  693,  922,  923,  924, 1153, 1154, 1155, 1384
 1385, 1386, 1615, 1616, 1617, 1846, 1847, 1848, 2077, 2078, 2079, 2308, 2309, 2310, 2539, 2540
 2541, 2770, 2771, 2772, 3001, 3002, 3003, 3232, 3233, 3234, 3463, 3464, 3465, 3694, 3695, 3696
 3925, 3926, 3927, 4156, 4157, 4158, 4387, 4388, 4389, 4618, 4619, 4620, 4849, 4850, 4851
*Nset, nset=LagrangeOutletNodes, instance=Lagrangian-1
    1,    2,    3,  232,  233,  234,  463,  464,  465,  694,  695,  696,  925,  926,  927, 1156
 1157, 1158, 1387, 1388, 1389, 1618, 1619, 1620, 1849, 1850, 1851, 2080, 2081, 2082, 2311, 2312
 2313, 2542, 2543, 2544, 2773, 2774, 2775, 3004, 3005, 3006, 3235, 3236, 3237, 3466, 3467, 3468
 3697, 3698, 3699, 3928, 3929, 3930, 4159, 4160, 4161, 4390, 4391, 4392, 4621, 4622, 4623
*Nset, nset=LagrangeXSymmNodes, instance=Lagrangian-1, generate
 4624,  4848,     1
*Nset, nset=LagrangeYSymmNodes, instance=Lagrangian-1, generate
   4,  228,    1
*Nset, nset=Wall, instance=Lagrangian-1, generate
    3,  4851,     3
*Elset, elset=Wall, instance=Lagrangian-1, generate
    2,  3040,     2
*Nset, nset=_PickedSet97, internal, instance=Eulerian-1, generate
    1,  8697,     1
*Elset, elset=_PickedSet97, internal, instance=Eulerian-1, generate
    1,  7410,     1
*Elset, elset=_Euler_CurvedOuter_S3, internal, instance=Eulerian-1
  170,  171,  177,  365,  366,  372,  560,  561,  567,  755,  756,  762,  950,  951,  957, 1145
 1146, 1152, 1340, 1341, 1347, 1535, 1536, 1542, 1730, 1731, 1737, 1925, 1926, 1932, 2120, 2121
 2127, 2315, 2316, 2322, 2510, 2511, 2517, 2705, 2706, 2712, 2900, 2901, 2907, 3095, 3096, 3102
 3290, 3291, 3297, 3485, 3486, 3492, 3680, 3681, 3687, 3875, 3876, 3882, 4070, 4071, 4077, 4265
 4266, 4272, 4460, 4461, 4467, 4655, 4656, 4662, 4850, 4851, 4857, 5045, 5046, 5052, 5240, 5241
 5247, 5435, 5436, 5442, 5630, 5631, 5637, 5825, 5826, 5832, 6020, 6021, 6027, 6215, 6216, 6222
 6410, 6411, 6417, 6605, 6606, 6612, 6800, 6801, 6807, 6995, 6996, 7002, 7190, 7191, 7197, 7385
 7386, 7392
*Elset, elset=_Euler_CurvedOuter_S6, internal, instance=Eulerian-1
  174,  175,  176,  178,  180,  183,  369,  370,  371,  373,  375,  378,  564,  565,  566,  568
  570,  573,  759,  760,  761,  763,  765,  768,  954,  955,  956,  958,  960,  963, 1149, 1150
 1151, 1153, 1155, 1158, 1344, 1345, 1346, 1348, 1350, 1353, 1539, 1540, 1541, 1543, 1545, 1548
 1734, 1735, 1736, 1738, 1740, 1743, 1929, 1930, 1931, 1933, 1935, 1938, 2124, 2125, 2126, 2128
 2130, 2133, 2319, 2320, 2321, 2323, 2325, 2328, 2514, 2515, 2516, 2518, 2520, 2523, 2709, 2710
 2711, 2713, 2715, 2718, 2904, 2905, 2906, 2908, 2910, 2913, 3099, 3100, 3101, 3103, 3105, 3108
 3294, 3295, 3296, 3298, 3300, 3303, 3489, 3490, 3491, 3493, 3495, 3498, 3684, 3685, 3686, 3688
 3690, 3693, 3879, 3880, 3881, 3883, 3885, 3888, 4074, 4075, 4076, 4078, 4080, 4083, 4269, 4270
 4271, 4273, 4275, 4278, 4464, 4465, 4466, 4468, 4470, 4473, 4659, 4660, 4661, 4663, 4665, 4668
 4854, 4855, 4856, 4858, 4860, 4863, 5049, 5050, 5051, 5053, 5055, 5058, 5244, 5245, 5246, 5248
 5250, 5253, 5439, 5440, 5441, 5443, 5445, 5448, 5634, 5635, 5636, 5638, 5640, 5643, 5829, 5830
 5831, 5833, 5835, 5838, 6024, 6025, 6026, 6028, 6030, 6033, 6219, 6220, 6221, 6223, 6225, 6228
 6414, 6415, 6416, 6418, 6420, 6423, 6609, 6610, 6611, 6613, 6615, 6618, 6804, 6805, 6806, 6808
 6810, 6813, 6999, 7000, 7001, 7003, 7005, 7008, 7194, 7195, 7196, 7198, 7200, 7203, 7389, 7390
 7391, 7393, 7395, 7398
*Elset, elset=_Euler_CurvedOuter_S4, internal, instance=Eulerian-1
  181,  189,  193,  376,  384,  388,  571,  579,  583,  766,  774,  778,  961,  969,  973, 1156
 1164, 1168, 1351, 1359, 1363, 1546, 1554, 1558, 1741, 1749, 1753, 1936, 1944, 1948, 2131, 2139
 2143, 2326, 2334, 2338, 2521, 2529, 2533, 2716, 2724, 2728, 2911, 2919, 2923, 3106, 3114, 3118
 3301, 3309, 3313, 3496, 3504, 3508, 3691, 3699, 3703, 3886, 3894, 3898, 4081, 4089, 4093, 4276
 4284, 4288, 4471, 4479, 4483, 4666, 4674, 4678, 4861, 4869, 4873, 5056, 5064, 5068, 5251, 5259
 5263, 5446, 5454, 5458, 5641, 5649, 5653, 5836, 5844, 5848, 6031, 6039, 6043, 6226, 6234, 6238
 6421, 6429, 6433, 6616, 6624, 6628, 6811, 6819, 6823, 7006, 7014, 7018, 7201, 7209, 7213, 7396
 7404, 7408
*Elset, elset=_Euler_CurvedOuter_S5, internal, instance=Eulerian-1
  181,  184,  186,  187,  376,  379,  381,  382,  571,  574,  576,  577,  766,  769,  771,  772
  961,  964,  966,  967, 1156, 1159, 1161, 1162, 1351, 1354, 1356, 1357, 1546, 1549, 1551, 1552
 1741, 1744, 1746, 1747, 1936, 1939, 1941, 1942, 2131, 2134, 2136, 2137, 2326, 2329, 2331, 2332
 2521, 2524, 2526, 2527, 2716, 2719, 2721, 2722, 2911, 2914, 2916, 2917, 3106, 3109, 3111, 3112
 3301, 3304, 3306, 3307, 3496, 3499, 3501, 3502, 3691, 3694, 3696, 3697, 3886, 3889, 3891, 3892
 4081, 4084, 4086, 4087, 4276, 4279, 4281, 4282, 4471, 4474, 4476, 4477, 4666, 4669, 4671, 4672
 4861, 4864, 4866, 4867, 5056, 5059, 5061, 5062, 5251, 5254, 5256, 5257, 5446, 5449, 5451, 5452
 5641, 5644, 5646, 5647, 5836, 5839, 5841, 5842, 6031, 6034, 6036, 6037, 6226, 6229, 6231, 6232
 6421, 6424, 6426, 6427, 6616, 6619, 6621, 6622, 6811, 6814, 6816, 6817, 7006, 7009, 7011, 7012
 7201, 7204, 7206, 7207, 7396, 7399, 7401, 7402
*Surface, type=ELEMENT, name=Euler_CurvedOuter
_Euler_CurvedOuter_S3, S3
_Euler_CurvedOuter_S6, S6
_Euler_CurvedOuter_S4, S4
_Euler_CurvedOuter_S5, S5
*Elset, elset=_Inlet_S1, internal, instance=Eulerian-1, generate
   1,  149,    1
*Surface, type=ELEMENT, name=Inlet
_Inlet_S1, S1
*Elset, elset=_Inlet_ZeroP_S1, internal, instance=Eulerian-1, generate
 150,  195,    1
*Surface, type=ELEMENT, name=Inlet_ZeroP
_Inlet_ZeroP_S1, S1
*Elset, elset=_OuterWall_S6, internal, instance=Lagrangian-1, generate
    1,  3039,     2
*Surface, type=ELEMENT, name=OuterWall
_OuterWall_S6, S6
*Elset, elset=_Outlet_S2, internal, instance=Eulerian-1, generate
 7216,  7410,     1
*Surface, type=ELEMENT, name=Outlet
_Outlet_S2, S2
*Elset, elset=__PickedSurf11_S6, internal, instance=Eulerian-1
   47,   57,   67,   77,   87,   97,  170,  242,  252,  262,  272,  282,  292,  365,  437,  447
  457,  467,  477,  487,  560,  632,  642,  652,  662,  672,  682,  755,  827,  837,  847,  857
  867,  877,  950, 1022, 1032, 1042, 1052, 1062, 1072, 1145, 1217, 1227, 1237, 1247, 1257, 1267
 1340, 1412, 1422, 1432, 1442, 1452, 1462, 1535, 1607, 1617, 1627, 1637, 1647, 1657, 1730, 1802
 1812, 1822, 1832, 1842, 1852, 1925, 1997, 2007, 2017, 2027, 2037, 2047, 2120, 2192, 2202, 2212
 2222, 2232, 2242, 2315, 2387, 2397, 2407, 2417, 2427, 2437, 2510, 2582, 2592, 2602, 2612, 2622
 2632, 2705, 2777, 2787, 2797, 2807, 2817, 2827, 2900, 2972, 2982, 2992, 3002, 3012, 3022, 3095
 3167, 3177, 3187, 3197, 3207, 3217, 3290, 3362, 3372, 3382, 3392, 3402, 3412, 3485, 3557, 3567
 3577, 3587, 3597, 3607, 3680, 3752, 3762, 3772, 3782, 3792, 3802, 3875, 3947, 3957, 3967, 3977
 3987, 3997, 4070, 4142, 4152, 4162, 4172, 4182, 4192, 4265, 4337, 4347, 4357, 4367, 4377, 4387
 4460, 4532, 4542, 4552, 4562, 4572, 4582, 4655, 4727, 4737, 4747, 4757, 4767, 4777, 4850, 4922
 4932, 4942, 4952, 4962, 4972, 5045, 5117, 5127, 5137, 5147, 5157, 5167, 5240, 5312, 5322, 5332
 5342, 5352, 5362, 5435, 5507, 5517, 5527, 5537, 5547, 5557, 5630, 5702, 5712, 5722, 5732, 5742
 5752, 5825, 5897, 5907, 5917, 5927, 5937, 5947, 6020, 6092, 6102, 6112, 6122, 6132, 6142, 6215
 6287, 6297, 6307, 6317, 6327, 6337, 6410, 6482, 6492, 6502, 6512, 6522, 6532, 6605, 6677, 6687
 6697, 6707, 6717, 6727, 6800, 6872, 6882, 6892, 6902, 6912, 6922, 6995, 7067, 7077, 7087, 7097
 7107, 7117, 7190, 7262, 7272, 7282, 7292, 7302, 7312, 7385
*Elset, elset=__PickedSurf11_S3, internal, instance=Eulerian-1
  111,  114,  124,  125,  127,  128,  306,  309,  319,  320,  322,  323,  501,  504,  514,  515
  517,  518,  696,  699,  709,  710,  712,  713,  891,  894,  904,  905,  907,  908, 1086, 1089
 1099, 1100, 1102, 1103, 1281, 1284, 1294, 1295, 1297, 1298, 1476, 1479, 1489, 1490, 1492, 1493
 1671, 1674, 1684, 1685, 1687, 1688, 1866, 1869, 1879, 1880, 1882, 1883, 2061, 2064, 2074, 2075
 2077, 2078, 2256, 2259, 2269, 2270, 2272, 2273, 2451, 2454, 2464, 2465, 2467, 2468, 2646, 2649
 2659, 2660, 2662, 2663, 2841, 2844, 2854, 2855, 2857, 2858, 3036, 3039, 3049, 3050, 3052, 3053
 3231, 3234, 3244, 3245, 3247, 3248, 3426, 3429, 3439, 3440, 3442, 3443, 3621, 3624, 3634, 3635
 3637, 3638, 3816, 3819, 3829, 3830, 3832, 3833, 4011, 4014, 4024, 4025, 4027, 4028, 4206, 4209
 4219, 4220, 4222, 4223, 4401, 4404, 4414, 4415, 4417, 4418, 4596, 4599, 4609, 4610, 4612, 4613
 4791, 4794, 4804, 4805, 4807, 4808, 4986, 4989, 4999, 5000, 5002, 5003, 5181, 5184, 5194, 5195
 5197, 5198, 5376, 5379, 5389, 5390, 5392, 5393, 5571, 5574, 5584, 5585, 5587, 5588, 5766, 5769
 5779, 5780, 5782, 5783, 5961, 5964, 5974, 5975, 5977, 5978, 6156, 6159, 6169, 6170, 6172, 6173
 6351, 6354, 6364, 6365, 6367, 6368, 6546, 6549, 6559, 6560, 6562, 6563, 6741, 6744, 6754, 6755
 6757, 6758, 6936, 6939, 6949, 6950, 6952, 6953, 7131, 7134, 7144, 7145, 7147, 7148, 7326, 7329
 7339, 7340, 7342, 7343
*Elset, elset=__PickedSurf11_S5, internal, instance=Eulerian-1
  120,  121,  122,  141,  315,  316,  317,  336,  510,  511,  512,  531,  705,  706,  707,  726
  900,  901,  902,  921, 1095, 1096, 1097, 1116, 1290, 1291, 1292, 1311, 1485, 1486, 1487, 1506
 1680, 1681, 1682, 1701, 1875, 1876, 1877, 1896, 2070, 2071, 2072, 2091, 2265, 2266, 2267, 2286
 2460, 2461, 2462, 2481, 2655, 2656, 2657, 2676, 2850, 2851, 2852, 2871, 3045, 3046, 3047, 3066
 3240, 3241, 3242, 3261, 3435, 3436, 3437, 3456, 3630, 3631, 3632, 3651, 3825, 3826, 3827, 3846
 4020, 4021, 4022, 4041, 4215, 4216, 4217, 4236, 4410, 4411, 4412, 4431, 4605, 4606, 4607, 4626
 4800, 4801, 4802, 4821, 4995, 4996, 4997, 5016, 5190, 5191, 5192, 5211, 5385, 5386, 5387, 5406
 5580, 5581, 5582, 5601, 5775, 5776, 5777, 5796, 5970, 5971, 5972, 5991, 6165, 6166, 6167, 6186
 6360, 6361, 6362, 6381, 6555, 6556, 6557, 6576, 6750, 6751, 6752, 6771, 6945, 6946, 6947, 6966
 7140, 7141, 7142, 7161, 7335, 7336, 7337, 7356
*Elset, elset=__PickedSurf11_S4, internal, instance=Eulerian-1
  159,  169,  354,  364,  549,  559,  744,  754,  939,  949, 1134, 1144, 1329, 1339, 1524, 1534
 1719, 1729, 1914, 1924, 2109, 2119, 2304, 2314, 2499, 2509, 2694, 2704, 2889, 2899, 3084, 3094
 3279, 3289, 3474, 3484, 3669, 3679, 3864, 3874, 4059, 4069, 4254, 4264, 4449, 4459, 4644, 4654
 4839, 4849, 5034, 5044, 5229, 5239, 5424, 5434, 5619, 5629, 5814, 5824, 6009, 6019, 6204, 6214
 6399, 6409, 6594, 6604, 6789, 6799, 6984, 6994, 7179, 7189, 7374, 7384
*Surface, type=ELEMENT, name=_PickedSurf11, internal
__PickedSurf11_S6, S6
__PickedSurf11_S3, S3
__PickedSurf11_S4, S4
__PickedSurf11_S5, S5
*Elset, elset=__PickedSurf12_S4, internal, instance=Eulerian-1
    4,   18,   44,   56,   66,   76,   86,   96,  106,  199,  213,  239,  251,  261,  271,  281
  291,  301,  394,  408,  434,  446,  456,  466,  476,  486,  496,  589,  603,  629,  641,  651
  661,  671,  681,  691,  784,  798,  824,  836,  846,  856,  866,  876,  886,  979,  993, 1019
 1031, 1041, 1051, 1061, 1071, 1081, 1174, 1188, 1214, 1226, 1236, 1246, 1256, 1266, 1276, 1369
 1383, 1409, 1421, 1431, 1441, 1451, 1461, 1471, 1564, 1578, 1604, 1616, 1626, 1636, 1646, 1656
 1666, 1759, 1773, 1799, 1811, 1821, 1831, 1841, 1851, 1861, 1954, 1968, 1994, 2006, 2016, 2026
 2036, 2046, 2056, 2149, 2163, 2189, 2201, 2211, 2221, 2231, 2241, 2251, 2344, 2358, 2384, 2396
 2406, 2416, 2426, 2436, 2446, 2539, 2553, 2579, 2591, 2601, 2611, 2621, 2631, 2641, 2734, 2748
 2774, 2786, 2796, 2806, 2816, 2826, 2836, 2929, 2943, 2969, 2981, 2991, 3001, 3011, 3021, 3031
 3124, 3138, 3164, 3176, 3186, 3196, 3206, 3216, 3226, 3319, 3333, 3359, 3371, 3381, 3391, 3401
 3411, 3421, 3514, 3528, 3554, 3566, 3576, 3586, 3596, 3606, 3616, 3709, 3723, 3749, 3761, 3771
 3781, 3791, 3801, 3811, 3904, 3918, 3944, 3956, 3966, 3976, 3986, 3996, 4006, 4099, 4113, 4139
 4151, 4161, 4171, 4181, 4191, 4201, 4294, 4308, 4334, 4346, 4356, 4366, 4376, 4386, 4396, 4489
 4503, 4529, 4541, 4551, 4561, 4571, 4581, 4591, 4684, 4698, 4724, 4736, 4746, 4756, 4766, 4776
 4786, 4879, 4893, 4919, 4931, 4941, 4951, 4961, 4971, 4981, 5074, 5088, 5114, 5126, 5136, 5146
 5156, 5166, 5176, 5269, 5283, 5309, 5321, 5331, 5341, 5351, 5361, 5371, 5464, 5478, 5504, 5516
 5526, 5536, 5546, 5556, 5566, 5659, 5673, 5699, 5711, 5721, 5731, 5741, 5751, 5761, 5854, 5868
 5894, 5906, 5916, 5926, 5936, 5946, 5956, 6049, 6063, 6089, 6101, 6111, 6121, 6131, 6141, 6151
 6244, 6258, 6284, 6296, 6306, 6316, 6326, 6336, 6346, 6439, 6453, 6479, 6491, 6501, 6511, 6521
 6531, 6541, 6634, 6648, 6674, 6686, 6696, 6706, 6716, 6726, 6736, 6829, 6843, 6869, 6881, 6891
 6901, 6911, 6921, 6931, 7024, 7038, 7064, 7076, 7086, 7096, 7106, 7116, 7126, 7219, 7233, 7259
 7271, 7281, 7291, 7301, 7311, 7321
*Elset, elset=__PickedSurf12_S6, internal, instance=Eulerian-1
    8,   11,   13,   23,   30,   45,  150,  160,  203,  206,  208,  218,  225,  240,  345,  355
  398,  401,  403,  413,  420,  435,  540,  550,  593,  596,  598,  608,  615,  630,  735,  745
  788,  791,  793,  803,  810,  825,  930,  940,  983,  986,  988,  998, 1005, 1020, 1125, 1135
 1178, 1181, 1183, 1193, 1200, 1215, 1320, 1330, 1373, 1376, 1378, 1388, 1395, 1410, 1515, 1525
 1568, 1571, 1573, 1583, 1590, 1605, 1710, 1720, 1763, 1766, 1768, 1778, 1785, 1800, 1905, 1915
 1958, 1961, 1963, 1973, 1980, 1995, 2100, 2110, 2153, 2156, 2158, 2168, 2175, 2190, 2295, 2305
 2348, 2351, 2353, 2363, 2370, 2385, 2490, 2500, 2543, 2546, 2548, 2558, 2565, 2580, 2685, 2695
 2738, 2741, 2743, 2753, 2760, 2775, 2880, 2890, 2933, 2936, 2938, 2948, 2955, 2970, 3075, 3085
 3128, 3131, 3133, 3143, 3150, 3165, 3270, 3280, 3323, 3326, 3328, 3338, 3345, 3360, 3465, 3475
 3518, 3521, 3523, 3533, 3540, 3555, 3660, 3670, 3713, 3716, 3718, 3728, 3735, 3750, 3855, 3865
 3908, 3911, 3913, 3923, 3930, 3945, 4050, 4060, 4103, 4106, 4108, 4118, 4125, 4140, 4245, 4255
 4298, 4301, 4303, 4313, 4320, 4335, 4440, 4450, 4493, 4496, 4498, 4508, 4515, 4530, 4635, 4645
 4688, 4691, 4693, 4703, 4710, 4725, 4830, 4840, 4883, 4886, 4888, 4898, 4905, 4920, 5025, 5035
 5078, 5081, 5083, 5093, 5100, 5115, 5220, 5230, 5273, 5276, 5278, 5288, 5295, 5310, 5415, 5425
 5468, 5471, 5473, 5483, 5490, 5505, 5610, 5620, 5663, 5666, 5668, 5678, 5685, 5700, 5805, 5815
 5858, 5861, 5863, 5873, 5880, 5895, 6000, 6010, 6053, 6056, 6058, 6068, 6075, 6090, 6195, 6205
 6248, 6251, 6253, 6263, 6270, 6285, 6390, 6400, 6443, 6446, 6448, 6458, 6465, 6480, 6585, 6595
 6638, 6641, 6643, 6653, 6660, 6675, 6780, 6790, 6833, 6836, 6838, 6848, 6855, 6870, 6975, 6985
 7028, 7031, 7033, 7043, 7050, 7065, 7170, 7180, 7223, 7226, 7228, 7238, 7245, 7260, 7365, 7375
*Elset, elset=__PickedSurf12_S3, internal, instance=Eulerian-1
   15,  176,  210,  371,  405,  566,  600,  761,  795,  956,  990, 1151, 1185, 1346, 1380, 1541
 1575, 1736, 1770, 1931, 1965, 2126, 2160, 2321, 2355, 2516, 2550, 2711, 2745, 2906, 2940, 3101
 3135, 3296, 3330, 3491, 3525, 3686, 3720, 3881, 3915, 4076, 4110, 4271, 4305, 4466, 4500, 4661
 4695, 4856, 4890, 5051, 5085, 5246, 5280, 5441, 5475, 5636, 5670, 5831, 5865, 6026, 6060, 6221
 6255, 6416, 6450, 6611, 6645, 6806, 6840, 7001, 7035, 7196, 7230, 7391
*Surface, type=ELEMENT, name=_PickedSurf12, internal
__PickedSurf12_S4, S4
__PickedSurf12_S6, S6
__PickedSurf12_S3, S3
*End Assembly
** 
** ELEMENT CONTROLS
** 
*Section Controls, name=EC-1, second order accuracy=YES
1., 1., 1.
*Section Controls, name=EC-2, hourglass=ENHANCED, second order accuracy=YES
1., 1., 1.
*Amplitude, name=Amp-1
             0.,              1.,           0.003,              1.,          0.0031,              0.,             0.1,              0.
*Amplitude, name=ZeroPWorkaround
             0.,              0.,              2.,              0.
** 
** MATERIALS
** 
*Material, name=Fluid
*Density
1000.,
*Viscosity
 0.003,
*Eos, type=USER, PROPERTIES=2
150, 7.15
*Material, name=NeoHooke
*Density
1000.,
*Hyperelastic, neo hooke
57690.,0.
*Material, name=Solid
*Density
1200.,
*Elastic
300000., 0.3
** 
** INTERACTION PROPERTIES
** 
*Surface Interaction, name=Contact
** 
** BOUNDARY CONDITIONS
** 
** Name: LagrangeSymmetry1_trueY Type: Symmetry/Antisymmetry/Encastre
*Boundary
LagrangeYSymmNodes, YSYMM
** Name: LagrangeSymmetry2_UserZ Type: Symmetry/Antisymmetry/Encastre
*Boundary
LagrangeXSymmNodes, XSYMM
** 
** PREDEFINED FIELDS
** 
** Name: MaterialFraction   Type: Material assignment
*Initial Conditions, type=VOLUME FRACTION
_PickedSet97, Eulerian-1.fluid-1, 1.
** ----------------------------------------------------------------
** 
** STEP: Step-1
** 
*Step, name=Step-1, nlgeom=YES
Pressure on
*Dynamic, Explicit
, 0.02
*Bulk Viscosity
0.06, 1.2
** 
** BOUNDARY CONDITIONS
** 
** Name: EulerCurved Type: Eulerian boundary
*Eulerian Boundary, inflow=FREE, outflow=ZERO PRESSURE
Euler_CurvedOuter
** Name: EulerInlet_Extern Type: Eulerian boundary
*Eulerian Boundary, inflow=FREE, outflow=ZERO PRESSURE
Inlet_ZeroP
** Name: Euler_Inlet Type: Eulerian boundary
*Eulerian Boundary, inflow=FREE
Inlet
** Name: Euler_Outlet Type: Eulerian boundary
*Eulerian Boundary, outflow=ZERO PRESSURE
Outlet
** Name: LagrangeInlet Type: Symmetry/Antisymmetry/Encastre
*Boundary
LagrangeInletNodes, ENCASTRE
** Name: LagrangeOutlet Type: Symmetry/Antisymmetry/Encastre
*Boundary
LagrangeOutletNodes, ENCASTRE
** Name: Symmetry1 Type: Eulerian boundary
*Eulerian Boundary, inflow=NONE, outflow=NONE
_PickedSurf11
** Name: Symmetry2 Type: Eulerian boundary
*Eulerian Boundary, inflow=NONE, outflow=NONE
_PickedSurf12
** 
** LOADS
** 
** Name: PZeroCurved   Type: Pressure
*Dsload, amplitude=ZeroPWorkaround
Euler_CurvedOuter, P, 1.
** Name: PZeroIn   Type: Pressure
*Dsload, amplitude=ZeroPWorkaround
Inlet_ZeroP, P, 1.
** Name: PZeroOut   Type: Pressure
*Dsload, amplitude=ZeroPWorkaround
Outlet, P, 1.
** Name: Pressurein   Type: Pressure
*Dsload, amplitude=Amp-1
Inlet, P, 1333.3
** 
** INTERACTIONS
** 
** Interaction: Interaction
*Contact, op=NEW
*Contact Inclusions, ALL EXTERIOR
*Contact Property Assignment
 ,  , Contact
** 
** OUTPUT REQUESTS
** 
*Restart, write, number interval=1, time marks=NO
** 
** FIELD OUTPUT: F-Output-1
** 
*Output, field, number interval=100
*Node Output
A, RF, U, V
*Element Output, directions=YES
DENSITY, EVF, LE, MFL, P, PE, PEEQ, PEEQVAVG, PEVAVG, S, SVAVG
*Contact Output
CSTRESS, 
** 
** HISTORY OUTPUT: H-Output-1
** 
*Output, history, variable=PRESELECT
*End Step
