*Heading
** Job name: Radius_0_025__Mesh40y Model name: Model-1
** Generated by: Abaqus/CAE 2023
*Preprint, echo=NO, model=NO, history=NO, contact=NO
**
** PARTS
**
*Part, name=Tube
*Node
      1,           5.,  0.100000001, 0.0250000004
      2,           5., 0.0993750021, 0.0250000004
      3,           5., 0.0987500027, 0.0250000004
      4,           5., 0.0981250033, 0.0250000004
      5,           5., 0.0974999964, 0.0250000004
      6,           5.,  0.096874997, 0.0250000004
      7,           5., 0.0962499976, 0.0250000004
      8,           5., 0.0956249982, 0.0250000004
      9,           5., 0.0949999988, 0.0250000004
     10,           5., 0.0943749994, 0.0250000004
     11,           5.,      0.09375, 0.0250000004
     12,           5., 0.0931250006, 0.0250000004
     13,           5., 0.0925000012, 0.0250000004
     14,           5., 0.0918750018, 0.0250000004
     15,           5., 0.0912500024, 0.0250000004
     16,           5.,  0.090625003, 0.0250000004
     17,           5., 0.0900000036, 0.0250000004
     18,           5., 0.0893749967, 0.0250000004
     19,           5., 0.0887499973, 0.0250000004
     20,           5., 0.0881249979, 0.0250000004
** ... 4982 like lines cut
*Element, type=EC3D8R
   1,   83,   84,  125,  124,    1,    2,   43,   42
   2,   84,   85,  126,  125,    2,    3,   44,   43
   3,   85,   86,  127,  126,    3,    4,   45,   44
   4,   86,   87,  128,  127,    4,    5,   46,   45
   5,   87,   88,  129,  128,    5,    6,   47,   46
   6,   88,   89,  130,  129,    6,    7,   48,   47
   7,   89,   90,  131,  130,    7,    8,   49,   48
   8,   90,   91,  132,  131,    8,    9,   50,   49
   9,   91,   92,  133,  132,    9,   10,   51,   50
  10,   92,   93,  134,  133,   10,   11,   52,   51
  11,   93,   94,  135,  134,   11,   12,   53,   52
  12,   94,   95,  136,  135,   12,   13,   54,   53
  13,   95,   96,  137,  136,   13,   14,   55,   54
  14,   96,   97,  138,  137,   14,   15,   56,   55
  15,   97,   98,  139,  138,   15,   16,   57,   56
  16,   98,   99,  140,  139,   16,   17,   58,   57
  17,   99,  100,  141,  140,   17,   18,   59,   58
  18,  100,  101,  142,  141,   18,   19,   60,   59
  19,  101,  102,  143,  142,   19,   20,   61,   60
  20,  102,  103,  144,  143,   20,   21,   62,   61
** ... 2380 like lines cut
*Nset, nset=Set-1, generate
    1,  5002,     1
*Elset, elset=Set-1, generate
    1,  2400,     1
** Section: Eulerian Section
*Eulerian Section, elset=Set-1, controls=EC-1
Water, water-1
*Surface, type=EULERIAN MATERIAL, name=water-1
water-1
*End Part
**  
**
** ASSEMBLY
**
*Assembly, name=Assembly
**  
*Instance, name=Tube-1, part=Tube
*End Instance
**  
*Nset, nset=InFace, instance=Tube-1, generate
 4921,  5002,     1
*Elset, elset=InFace, instance=Tube-1, generate
 2361,  2400,     1
*Nset, nset="Inlet Nodes", instance=Tube-1
 4922, 4923, 4924, 4925, 4926, 4927, 4928, 4929, 4930, 4931, 4932, 4933, 4934, 4935, 4936, 4937
 4938, 4939, 4940, 4941, 4942, 4943, 4944, 4945, 4946, 4947, 4948, 4949, 4950, 4951, 4952, 4953
 4954, 4955, 4956, 4957, 4958, 4959, 4960, 4961, 4963, 4964, 4965, 4966, 4967, 4968, 4969, 4970
 4971, 4972, 4973, 4974, 4975, 4976, 4977, 4978, 4979, 4980, 4981, 4982, 4983, 4984, 4985, 4986
 4987, 4988, 4989, 4990, 4991, 4992, 4993, 4994, 4995, 4996, 4997, 4998, 4999, 5000, 5001, 5002
*Nset, nset=Symm, instance=Tube-1, generate
   41,  4920,    41
*Nset, nset=Wall, instance=Tube-1, generate
    1,  4962,    41
*Elset, elset=Wall, instance=Tube-1, generate
    1,  2361,    40
*Nset, nset=YSymm, instance=Tube-1, generate
   41,  5002,    41
*Elset, elset=YSymm, instance=Tube-1, generate
   40,  2400,    40
*Nset, nset=Z-Walls, instance=Tube-1, generate
    1,  5002,     1
*Elset, elset=Z-Walls, instance=Tube-1, generate
    1,  2400,     1
*Nset, nset=ZSymm, instance=Tube-1
    2,    3,    4,    5,    6,    7,    8,    9,   10,   11,   12,   13,   14,   15,   16,   17
   18,   19,   20,   21,   22,   23,   24,   25,   26,   27,   28,   29,   30,   31,   32,   33
   34,   35,   36,   37,   38,   39,   40,   43,   44,   45,   46,   47,   48,   49,   50,   51
   52,   53,   54,   55,   56,   57,   58,   59,   60,   61,   62,   63,   64,   65,   66,   67
   68,   69,   70,   71,   72,   73,   74,   75,   76,   77,   78,   79,   80,   81,   84,   85
   86,   87,   88,   89,   90,   91,   92,   93,   94,   95,   96,   97,   98,   99,  100,  101
  102,  103,  104,  105,  106,  107,  108,  109,  110,  111,  112,  113,  114,  115,  116,  117
  118,  119,  120,  121,  122,  125,  126,  127,  128,  129,  130,  131,  132,  133,  134,  135
  136,  137,  138,  139,  140,  141,  142,  143,  144,  145,  146,  147,  148,  149,  150,  151
  152,  153,  154,  155,  156,  157,  158,  159,  160,  161,  162,  163,  166,  167,  168,  169
  170,  171,  172,  173,  174,  175,  176,  177,  178,  179,  180,  181,  182,  183,  184,  185
  186,  187,  188,  189,  190,  191,  192,  193,  194,  195,  196,  197,  198,  199,  200,  201
  202,  203,  204,  207,  208,  209,  210,  211,  212,  213,  214,  215,  216,  217,  218,  219
  220,  221,  222,  223,  224,  225,  226,  227,  228,  229,  230,  231,  232,  233,  234,  235
  236,  237,  238,  239,  240,  241,  242,  243,  244,  245,  248,  249,  250,  251,  252,  253
  254,  255,  256,  257,  258,  259,  260,  261,  262,  263,  264,  265,  266,  267,  268,  269
  270,  271,  272,  273,  274,  275,  276,  277,  278,  279,  280,  281,  282,  283,  284,  285
  286,  289,  290,  291,  292,  293,  294,  295,  296,  297,  298,  299,  300,  301,  302,  303
  304,  305,  306,  307,  308,  309,  310,  311,  312,  313,  314,  315,  316,  317,  318,  319
  320,  321,  322,  323,  324,  325,  326,  327,  330,  331,  332,  333,  334,  335,  336,  337
** ... 273 like lines cut
*Nset, nset=_PickedSet11, internal, instance=Tube-1, generate
    1,  5002,     1
*Elset, elset=_PickedSet11, internal, instance=Tube-1, generate
    1,  2400,     1
*Elset, elset=__PickedSurf15_S1, internal, instance=Tube-1, generate
 2361,  2400,     1
*Surface, type=ELEMENT, name=_PickedSurf15, internal
__PickedSurf15_S1, S1
*Elset, elset=__PickedSurf16_S2, internal, instance=Tube-1, generate
  1,  40,   1
*Surface, type=ELEMENT, name=_PickedSurf16, internal
__PickedSurf16_S2, S2
*Elset, elset=__PickedSurf17_S2, internal, instance=Tube-1, generate
  1,  40,   1
*Surface, type=ELEMENT, name=_PickedSurf17, internal
__PickedSurf17_S2, S2
*End Assembly
** 
** ELEMENT CONTROLS
** 
*Section Controls, name=EC-1, second order accuracy=YES
1., 1., 1.
*Amplitude, name=SmoothIn, definition=SMOOTH STEP
             0.,              0.,             50.,              1.
** 
** MATERIALS
** 
*Material, name=water
*Density
1000.,
*Eos, type=USER, PROPERTIES=2
15,7.15
*Viscosity
 0.001,
** 
** BOUNDARY CONDITIONS
** 
** Name: Symm Type: Symmetry/Antisymmetry/Encastre
*Boundary
Symm, YSYMM
** Name: ZSymm Type: Symmetry/Antisymmetry/Encastre
*Boundary
ZSymm, ZSYMM
** 
** PREDEFINED FIELDS
** 
** Name: Predefined Field-1   Type: Material assignment
*Initial Conditions, type=VOLUME FRACTION
_PickedSet11, Tube-1.water-1, 1.
** ----------------------------------------------------------------
** 
** STEP: Step-1
** 
*Step, name=Step-1, nlgeom=YES
*Dynamic, Explicit
, 1000.
*Bulk Viscosity
0.06, 1.2
** 
** BOUNDARY CONDITIONS
** 
** Name: EulerIn Type: Eulerian boundary
*Eulerian Boundary, inflow=FREE
_PickedSurf15
** Name: EulerOut Type: Eulerian boundary
*Eulerian Boundary, outflow=FREE
_PickedSurf16
** Name: InletVelocity Type: Velocity/Angular velocity
*Boundary, amplitude=SmoothIn, type=VELOCITY
"Inlet Nodes", 1, 1, 0.01
"Inlet Nodes", 2, 2
"Inlet Nodes", 3, 3
** Name: NoSlip Type: Velocity/Angular velocity
*Boundary, type=VELOCITY
Wall, 1, 1
Wall, 2, 2
Wall, 3, 3
Wall, 4, 4
Wall, 5, 5
Wall, 6, 6
** 
** LOADS
** 
** Name: OutPressure   Type: Pressure
*Dsload
_PickedSurf17, P, 1e-07
** 
** OUTPUT REQUESTS
** 
*Restart, write, number interval=1, time marks=NO
** 
** FIELD OUTPUT: F-Output-1
** 
*Output, field, number interval=50
*Node Output
A, RF, U, V
*Element Output, directions=YES
DENSITY, EVF, LE, PE, PEEQ, PEEQVAVG, PEVAVG, S, SVAVG
*Contact Output
CSTRESS, 
** 
** HISTORY OUTPUT: H-Output-1
** 
*Output, history, variable=PRESELECT
*End Step
