*Heading
** Job name: Radius_0_025__Mesh20y Model name: Model-1
** Generated by: Abaqus/CAE 2023
*Preprint, echo=NO, model=NO, history=NO, contact=NO
**
** PARTS
**
*Part, name=Tube
*Node
      1,           5.,  0.100000001, 0.0250000004
      2,           5., 0.0987500027, 0.0250000004
      3,           5., 0.0974999964, 0.0250000004
      4,           5., 0.0962499976, 0.0250000004
      5,           5., 0.0949999988, 0.0250000004
      6,           5.,      0.09375, 0.0250000004
      7,           5., 0.0925000012, 0.0250000004
      8,           5., 0.0912500024, 0.0250000004
      9,           5., 0.0900000036, 0.0250000004
     10,           5., 0.0887499973, 0.0250000004
     11,           5., 0.0874999985, 0.0250000004
     12,           5., 0.0862499997, 0.0250000004
     13,           5., 0.0850000009, 0.0250000004
     14,           5., 0.0837500021, 0.0250000004
     15,           5., 0.0825000033, 0.0250000004
     16,           5.,  0.081249997, 0.0250000004
     17,           5., 0.0799999982, 0.0250000004
     18,           5., 0.0787499994, 0.0250000004
     19,           5., 0.0775000006, 0.0250000004
     20,           5., 0.0762500018, 0.0250000004
** ... 2542 like lines cut
*Element, type=EC3D8R
   1,   43,   44,   65,   64,    1,    2,   23,   22
   2,   44,   45,   66,   65,    2,    3,   24,   23
   3,   45,   46,   67,   66,    3,    4,   25,   24
   4,   46,   47,   68,   67,    4,    5,   26,   25
   5,   47,   48,   69,   68,    5,    6,   27,   26
   6,   48,   49,   70,   69,    6,    7,   28,   27
   7,   49,   50,   71,   70,    7,    8,   29,   28
   8,   50,   51,   72,   71,    8,    9,   30,   29
   9,   51,   52,   73,   72,    9,   10,   31,   30
  10,   52,   53,   74,   73,   10,   11,   32,   31
  11,   53,   54,   75,   74,   11,   12,   33,   32
  12,   54,   55,   76,   75,   12,   13,   34,   33
  13,   55,   56,   77,   76,   13,   14,   35,   34
  14,   56,   57,   78,   77,   14,   15,   36,   35
  15,   57,   58,   79,   78,   15,   16,   37,   36
  16,   58,   59,   80,   79,   16,   17,   38,   37
  17,   59,   60,   81,   80,   17,   18,   39,   38
  18,   60,   61,   82,   81,   18,   19,   40,   39
  19,   61,   62,   83,   82,   19,   20,   41,   40
  20,   62,   63,   84,   83,   20,   21,   42,   41
** ... 1180 like lines cut
*Nset, nset=Set-1, generate
    1,  2562,     1
*Elset, elset=Set-1, generate
    1,  1200,     1
** Section: Eulerian Section
*Eulerian Section, elset=Set-1, controls=EC-1
Water, water-1
*Surface, type=EULERIAN MATERIAL, name=water-1
water-1
*End Part
**  
**
** ASSEMBLY
**
*Assembly, name=Assembly
**  
*Instance, name=Tube-1, part=Tube
*End Instance
**  
*Nset, nset=InFace, instance=Tube-1, generate
 2521,  2562,     1
*Elset, elset=InFace, instance=Tube-1, generate
 1181,  1200,     1
*Nset, nset="Inlet Nodes", instance=Tube-1
 2522, 2523, 2524, 2525, 2526, 2527, 2528, 2529, 2530, 2531, 2532, 2533, 2534, 2535, 2536, 2537
 2538, 2539, 2540, 2541, 2543, 2544, 2545, 2546, 2547, 2548, 2549, 2550, 2551, 2552, 2553, 2554
 2555, 2556, 2557, 2558, 2559, 2560, 2561, 2562
*Nset, nset=Symm, instance=Tube-1, generate
   21,  2520,    21
*Nset, nset=Wall, instance=Tube-1, generate
    1,  2542,    21
*Elset, elset=Wall, instance=Tube-1, generate
    1,  1181,    20
*Nset, nset=YSymm, instance=Tube-1, generate
   21,  2562,    21
*Elset, elset=YSymm, instance=Tube-1, generate
   20,  1200,    20
*Nset, nset=Z-Walls, instance=Tube-1, generate
    1,  2562,     1
*Elset, elset=Z-Walls, instance=Tube-1, generate
    1,  1200,     1
*Nset, nset=ZSymm, instance=Tube-1
    2,    3,    4,    5,    6,    7,    8,    9,   10,   11,   12,   13,   14,   15,   16,   17
   18,   19,   20,   23,   24,   25,   26,   27,   28,   29,   30,   31,   32,   33,   34,   35
   36,   37,   38,   39,   40,   41,   44,   45,   46,   47,   48,   49,   50,   51,   52,   53
   54,   55,   56,   57,   58,   59,   60,   61,   62,   65,   66,   67,   68,   69,   70,   71
   72,   73,   74,   75,   76,   77,   78,   79,   80,   81,   82,   83,   86,   87,   88,   89
   90,   91,   92,   93,   94,   95,   96,   97,   98,   99,  100,  101,  102,  103,  104,  107
  108,  109,  110,  111,  112,  113,  114,  115,  116,  117,  118,  119,  120,  121,  122,  123
  124,  125,  128,  129,  130,  131,  132,  133,  134,  135,  136,  137,  138,  139,  140,  141
  142,  143,  144,  145,  146,  149,  150,  151,  152,  153,  154,  155,  156,  157,  158,  159
  160,  161,  162,  163,  164,  165,  166,  167,  170,  171,  172,  173,  174,  175,  176,  177
  178,  179,  180,  181,  182,  183,  184,  185,  186,  187,  188,  191,  192,  193,  194,  195
  196,  197,  198,  199,  200,  201,  202,  203,  204,  205,  206,  207,  208,  209,  212,  213
  214,  215,  216,  217,  218,  219,  220,  221,  222,  223,  224,  225,  226,  227,  228,  229
  230,  233,  234,  235,  236,  237,  238,  239,  240,  241,  242,  243,  244,  245,  246,  247
  248,  249,  250,  251,  254,  255,  256,  257,  258,  259,  260,  261,  262,  263,  264,  265
  266,  267,  268,  269,  270,  271,  272,  275,  276,  277,  278,  279,  280,  281,  282,  283
  284,  285,  286,  287,  288,  289,  290,  291,  292,  293,  296,  297,  298,  299,  300,  301
  302,  303,  304,  305,  306,  307,  308,  309,  310,  311,  312,  313,  314,  317,  318,  319
  320,  321,  322,  323,  324,  325,  326,  327,  328,  329,  330,  331,  332,  333,  334,  335
  338,  339,  340,  341,  342,  343,  344,  345,  346,  347,  348,  349,  350,  351,  352,  353
** ... 123 like lines cut
*Nset, nset=_PickedSet11, internal, instance=Tube-1, generate
    1,  2562,     1
*Elset, elset=_PickedSet11, internal, instance=Tube-1, generate
    1,  1200,     1
*Elset, elset=__PickedSurf15_S1, internal, instance=Tube-1, generate
 1181,  1200,     1
*Surface, type=ELEMENT, name=_PickedSurf15, internal
__PickedSurf15_S1, S1
*Elset, elset=__PickedSurf16_S2, internal, instance=Tube-1, generate
  1,  20,   1
*Surface, type=ELEMENT, name=_PickedSurf16, internal
__PickedSurf16_S2, S2
*Elset, elset=__PickedSurf17_S2, internal, instance=Tube-1, generate
  1,  20,   1
*Surface, type=ELEMENT, name=_PickedSurf17, internal
__PickedSurf17_S2, S2
*End Assembly
** 
** ELEMENT CONTROLS
** 
*Section Controls, name=EC-1, second order accuracy=YES
1., 1., 1.
*Amplitude, name=SmoothIn, definition=SMOOTH STEP
             0.,              0.,             50.,              1.
** 
** MATERIALS
** 
*Material, name=water
*Density
1000.,
*Eos, type=USER, PROPERTIES=2
15,7.15
*Viscosity
 0.001,
** 
** BOUNDARY CONDITIONS
** 
** Name: Symm Type: Symmetry/Antisymmetry/Encastre
*Boundary
Symm, YSYMM
** Name: ZSymm Type: Symmetry/Antisymmetry/Encastre
*Boundary
ZSymm, ZSYMM
** 
** PREDEFINED FIELDS
** 
** Name: Predefined Field-1   Type: Material assignment
*Initial Conditions, type=VOLUME FRACTION
_PickedSet11, Tube-1.water-1, 1.
** ----------------------------------------------------------------
** 
** STEP: Step-1
** 
*Step, name=Step-1, nlgeom=YES
*Dynamic, Explicit
, 1000.
*Bulk Viscosity
0.06, 1.2
** 
** BOUNDARY CONDITIONS
** 
** Name: EulerIn Type: Eulerian boundary
*Eulerian Boundary, inflow=FREE
_PickedSurf15
** Name: EulerOut Type: Eulerian boundary
*Eulerian Boundary, outflow=FREE
_PickedSurf16
** Name: InletVelocity Type: Velocity/Angular velocity
*Boundary, amplitude=SmoothIn, type=VELOCITY
"Inlet Nodes", 1, 1, 0.01
"Inlet Nodes", 2, 2
"Inlet Nodes", 3, 3
** Name: NoSlip Type: Velocity/Angular velocity
*Boundary, type=VELOCITY
Wall, 1, 1
Wall, 2, 2
Wall, 3, 3
Wall, 4, 4
Wall, 5, 5
Wall, 6, 6
** 
** LOADS
** 
** Name: OutPressure   Type: Pressure
*Dsload
_PickedSurf17, P, 1e-07
** 
** OUTPUT REQUESTS
** 
*Restart, write, number interval=1, time marks=NO
** 
** FIELD OUTPUT: F-Output-1
** 
*Output, field, number interval=50
*Node Output
A, RF, U, V
*Element Output, directions=YES
DENSITY, EVF, LE, PE, PEEQ, PEEQVAVG, PEVAVG, S, SVAVG
*Contact Output
CSTRESS, 
** 
** HISTORY OUTPUT: H-Output-1
** 
*Output, history, variable=PRESELECT
*End Step
