*Heading
** Job name: Radius_0_025__Mesh80 Model name: Model-1
** Generated by: Abaqus/CAE 2023
*Preprint, echo=NO, model=NO, history=NO, contact=NO
**
** PARTS
**
*Part, name=Tube
*Node
      1,           5.,  0.100000001, 0.0250000004
      2,           5., 0.0996875018, 0.0250000004
      3,           5., 0.0993750021, 0.0250000004
      4,           5., 0.0990625024, 0.0250000004
      5,           5., 0.0987500027, 0.0250000004
      6,           5.,  0.098437503, 0.0250000004
      7,           5., 0.0981250033, 0.0250000004
      8,           5., 0.0978125036, 0.0250000004
      9,           5., 0.0974999964, 0.0250000004
     10,           5., 0.0971874967, 0.0250000004
     11,           5.,  0.096874997, 0.0250000004
     12,           5., 0.0965624973, 0.0250000004
     13,           5., 0.0962499976, 0.0250000004
     14,           5., 0.0959374979, 0.0250000004
     15,           5., 0.0956249982, 0.0250000004
     16,           5., 0.0953124985, 0.0250000004
     17,           5., 0.0949999988, 0.0250000004
     18,           5., 0.0946874991, 0.0250000004
     19,           5., 0.0943749994, 0.0250000004
     20,           5., 0.0940624997, 0.0250000004
** ... 9862 like lines cut
*Element, type=EC3D8R
   1,  163,  164,  245,  244,    1,    2,   83,   82
   2,  164,  165,  246,  245,    2,    3,   84,   83
   3,  165,  166,  247,  246,    3,    4,   85,   84
   4,  166,  167,  248,  247,    4,    5,   86,   85
   5,  167,  168,  249,  248,    5,    6,   87,   86
   6,  168,  169,  250,  249,    6,    7,   88,   87
   7,  169,  170,  251,  250,    7,    8,   89,   88
   8,  170,  171,  252,  251,    8,    9,   90,   89
   9,  171,  172,  253,  252,    9,   10,   91,   90
  10,  172,  173,  254,  253,   10,   11,   92,   91
  11,  173,  174,  255,  254,   11,   12,   93,   92
  12,  174,  175,  256,  255,   12,   13,   94,   93
  13,  175,  176,  257,  256,   13,   14,   95,   94
  14,  176,  177,  258,  257,   14,   15,   96,   95
  15,  177,  178,  259,  258,   15,   16,   97,   96
  16,  178,  179,  260,  259,   16,   17,   98,   97
  17,  179,  180,  261,  260,   17,   18,   99,   98
  18,  180,  181,  262,  261,   18,   19,  100,   99
  19,  181,  182,  263,  262,   19,   20,  101,  100
  20,  182,  183,  264,  263,   20,   21,  102,  101
** ... 4780 like lines cut
*Nset, nset=Set-1, generate
    1,  9882,     1
*Elset, elset=Set-1, generate
    1,  4800,     1
** Section: Eulerian Section
*Eulerian Section, elset=Set-1, controls=EC-1
Water, water-1
*Surface, type=EULERIAN MATERIAL, name=water-1
water-1
*End Part
**  
**
** ASSEMBLY
**
*Assembly, name=Assembly
**  
*Instance, name=Tube-1, part=Tube
*End Instance
**  
*Nset, nset=InFace, instance=Tube-1, generate
 9721,  9882,     1
*Elset, elset=InFace, instance=Tube-1, generate
 4721,  4800,     1
*Nset, nset="Inlet Nodes", instance=Tube-1
 9722, 9723, 9724, 9725, 9726, 9727, 9728, 9729, 9730, 9731, 9732, 9733, 9734, 9735, 9736, 9737
 9738, 9739, 9740, 9741, 9742, 9743, 9744, 9745, 9746, 9747, 9748, 9749, 9750, 9751, 9752, 9753
 9754, 9755, 9756, 9757, 9758, 9759, 9760, 9761, 9762, 9763, 9764, 9765, 9766, 9767, 9768, 9769
 9770, 9771, 9772, 9773, 9774, 9775, 9776, 9777, 9778, 9779, 9780, 9781, 9782, 9783, 9784, 9785
 9786, 9787, 9788, 9789, 9790, 9791, 9792, 9793, 9794, 9795, 9796, 9797, 9798, 9799, 9800, 9801
 9803, 9804, 9805, 9806, 9807, 9808, 9809, 9810, 9811, 9812, 9813, 9814, 9815, 9816, 9817, 9818
 9819, 9820, 9821, 9822, 9823, 9824, 9825, 9826, 9827, 9828, 9829, 9830, 9831, 9832, 9833, 9834
 9835, 9836, 9837, 9838, 9839, 9840, 9841, 9842, 9843, 9844, 9845, 9846, 9847, 9848, 9849, 9850
 9851, 9852, 9853, 9854, 9855, 9856, 9857, 9858, 9859, 9860, 9861, 9862, 9863, 9864, 9865, 9866
 9867, 9868, 9869, 9870, 9871, 9872, 9873, 9874, 9875, 9876, 9877, 9878, 9879, 9880, 9881, 9882
*Nset, nset=Symm, instance=Tube-1, generate
   81,  9720,    81
*Nset, nset=Wall, instance=Tube-1, generate
    1,  9802,    81
*Elset, elset=Wall, instance=Tube-1, generate
    1,  4721,    80
*Nset, nset=YSymm, instance=Tube-1, generate
   81,  9882,    81
*Elset, elset=YSymm, instance=Tube-1, generate
   80,  4800,    80
*Nset, nset=Z-Walls, instance=Tube-1, generate
    1,  9882,     1
*Elset, elset=Z-Walls, instance=Tube-1, generate
    1,  4800,     1
*Nset, nset=ZSymm, instance=Tube-1
    2,    3,    4,    5,    6,    7,    8,    9,   10,   11,   12,   13,   14,   15,   16,   17
   18,   19,   20,   21,   22,   23,   24,   25,   26,   27,   28,   29,   30,   31,   32,   33
   34,   35,   36,   37,   38,   39,   40,   41,   42,   43,   44,   45,   46,   47,   48,   49
   50,   51,   52,   53,   54,   55,   56,   57,   58,   59,   60,   61,   62,   63,   64,   65
   66,   67,   68,   69,   70,   71,   72,   73,   74,   75,   76,   77,   78,   79,   80,   83
   84,   85,   86,   87,   88,   89,   90,   91,   92,   93,   94,   95,   96,   97,   98,   99
  100,  101,  102,  103,  104,  105,  106,  107,  108,  109,  110,  111,  112,  113,  114,  115
  116,  117,  118,  119,  120,  121,  122,  123,  124,  125,  126,  127,  128,  129,  130,  131
  132,  133,  134,  135,  136,  137,  138,  139,  140,  141,  142,  143,  144,  145,  146,  147
  148,  149,  150,  151,  152,  153,  154,  155,  156,  157,  158,  159,  160,  161,  164,  165
  166,  167,  168,  169,  170,  171,  172,  173,  174,  175,  176,  177,  178,  179,  180,  181
  182,  183,  184,  185,  186,  187,  188,  189,  190,  191,  192,  193,  194,  195,  196,  197
  198,  199,  200,  201,  202,  203,  204,  205,  206,  207,  208,  209,  210,  211,  212,  213
  214,  215,  216,  217,  218,  219,  220,  221,  222,  223,  224,  225,  226,  227,  228,  229
  230,  231,  232,  233,  234,  235,  236,  237,  238,  239,  240,  241,  242,  245,  246,  247
  248,  249,  250,  251,  252,  253,  254,  255,  256,  257,  258,  259,  260,  261,  262,  263
  264,  265,  266,  267,  268,  269,  270,  271,  272,  273,  274,  275,  276,  277,  278,  279
  280,  281,  282,  283,  284,  285,  286,  287,  288,  289,  290,  291,  292,  293,  294,  295
  296,  297,  298,  299,  300,  301,  302,  303,  304,  305,  306,  307,  308,  309,  310,  311
  312,  313,  314,  315,  316,  317,  318,  319,  320,  321,  322,  323,  326,  327,  328,  329
** ... 573 like lines cut
*Nset, nset=_PickedSet11, internal, instance=Tube-1, generate
    1,  9882,     1
*Elset, elset=_PickedSet11, internal, instance=Tube-1, generate
    1,  4800,     1
*Elset, elset=__PickedSurf15_S1, internal, instance=Tube-1, generate
 4721,  4800,     1
*Surface, type=ELEMENT, name=_PickedSurf15, internal
__PickedSurf15_S1, S1
*Elset, elset=__PickedSurf16_S2, internal, instance=Tube-1, generate
  1,  80,   1
*Surface, type=ELEMENT, name=_PickedSurf16, internal
__PickedSurf16_S2, S2
*Elset, elset=__PickedSurf17_S2, internal, instance=Tube-1, generate
  1,  80,   1
*Surface, type=ELEMENT, name=_PickedSurf17, internal
__PickedSurf17_S2, S2
*End Assembly
** 
** ELEMENT CONTROLS
** 
*Section Controls, name=EC-1, second order accuracy=YES
1., 1., 1.
*Amplitude, name=SmoothIn, definition=SMOOTH STEP
             0.,              0.,             50.,              1.
** 
** MATERIALS
** 
*Material, name=water
*Density
1000.,
*Eos, type=USER, PROPERTIES=2
15,7.15
*Viscosity
 0.001,
** 
** BOUNDARY CONDITIONS
** 
** Name: Symm Type: Symmetry/Antisymmetry/Encastre
*Boundary
Symm, YSYMM
** Name: ZSymm Type: Symmetry/Antisymmetry/Encastre
*Boundary
ZSymm, ZSYMM
** 
** PREDEFINED FIELDS
** 
** Name: Predefined Field-1   Type: Material assignment
*Initial Conditions, type=VOLUME FRACTION
_PickedSet11, Tube-1.water-1, 1.
** ----------------------------------------------------------------
** 
** STEP: Step-1
** 
*Step, name=Step-1, nlgeom=YES
*Dynamic, Explicit
, 1000.
*Bulk Viscosity
0.06, 1.2
** 
** BOUNDARY CONDITIONS
** 
** Name: EulerIn Type: Eulerian boundary
*Eulerian Boundary, inflow=FREE
_PickedSurf15
** Name: EulerOut Type: Eulerian boundary
*Eulerian Boundary, outflow=FREE
_PickedSurf16
** Name: InletVelocity Type: Velocity/Angular velocity
*Boundary, amplitude=SmoothIn, type=VELOCITY
"Inlet Nodes", 1, 1, 0.01
"Inlet Nodes", 2, 2
"Inlet Nodes", 3, 3
** Name: NoSlip Type: Velocity/Angular velocity
*Boundary, type=VELOCITY
Wall, 1, 1
Wall, 2, 2
Wall, 3, 3
Wall, 4, 4
Wall, 5, 5
Wall, 6, 6
** 
** LOADS
** 
** Name: OutPressure   Type: Pressure
*Dsload
_PickedSurf17, P, 1e-07
** 
** OUTPUT REQUESTS
** 
*Restart, write, number interval=1, time marks=NO
** 
** FIELD OUTPUT: F-Output-1
** 
*Output, field, number interval=50
*Node Output
A, RF, U, V
*Element Output, directions=YES
DENSITY, EVF, LE, PE, PEEQ, PEEQVAVG, PEVAVG, S, SVAVG
*Contact Output
CSTRESS, 
** 
** HISTORY OUTPUT: H-Output-1
** 
*Output, history, variable=PRESELECT
*End Step
