*Heading
** Job name: Radius_0_025__Mesh5y Model name: Model-1
** Generated by: Abaqus/CAE 2023
*Preprint, echo=NO, model=NO, history=NO, contact=NO
**
** PARTS
**
*Part, name=Tube
*Node
      1,           5.,  0.100000001, 0.0250000004
      2,           5., 0.0949999988, 0.0250000004
      3,           5., 0.0900000036, 0.0250000004
      4,           5., 0.0850000009, 0.0250000004
      5,           5., 0.0799999982, 0.0250000004
      6,           5.,  0.075000003, 0.0250000004
      7,           5.,  0.100000001,           0.
      8,           5., 0.0949999988,           0.
      9,           5., 0.0900000036,           0.
     10,           5., 0.0850000009,           0.
     11,           5., 0.0799999982,           0.
     12,           5.,  0.075000003,           0.
     13,   4.94999981,  0.100000001, 0.0250000004
     14,   4.94999981, 0.0949999988, 0.0250000004
     15,   4.94999981, 0.0900000036, 0.0250000004
     16,   4.94999981, 0.0850000009, 0.0250000004
     17,   4.94999981, 0.0799999982, 0.0250000004
     18,   4.94999981,  0.075000003, 0.0250000004
     19,   4.94999981,  0.100000001,           0.
     20,   4.94999981, 0.0949999988,           0.
** ... 712 like lines cut
*Element, type=EC3D8R
  1,  13,  14,  20,  19,   1,   2,   8,   7
  2,  14,  15,  21,  20,   2,   3,   9,   8
  3,  15,  16,  22,  21,   3,   4,  10,   9
  4,  16,  17,  23,  22,   4,   5,  11,  10
  5,  17,  18,  24,  23,   5,   6,  12,  11
  6,  25,  26,  32,  31,  13,  14,  20,  19
  7,  26,  27,  33,  32,  14,  15,  21,  20
  8,  27,  28,  34,  33,  15,  16,  22,  21
  9,  28,  29,  35,  34,  16,  17,  23,  22
 10,  29,  30,  36,  35,  17,  18,  24,  23
 11,  37,  38,  44,  43,  25,  26,  32,  31
 12,  38,  39,  45,  44,  26,  27,  33,  32
 13,  39,  40,  46,  45,  27,  28,  34,  33
 14,  40,  41,  47,  46,  28,  29,  35,  34
 15,  41,  42,  48,  47,  29,  30,  36,  35
 16,  49,  50,  56,  55,  37,  38,  44,  43
 17,  50,  51,  57,  56,  38,  39,  45,  44
 18,  51,  52,  58,  57,  39,  40,  46,  45
 19,  52,  53,  59,  58,  40,  41,  47,  46
 20,  53,  54,  60,  59,  41,  42,  48,  47
** ... 280 like lines cut
*Nset, nset=Set-1, generate
   1,  732,    1
*Elset, elset=Set-1, generate
   1,  300,    1
** Section: Eulerian Section
*Eulerian Section, elset=Set-1, controls=EC-1
Water, water-1
*Surface, type=EULERIAN MATERIAL, name=water-1
water-1
*End Part
**  
**
** ASSEMBLY
**
*Assembly, name=Assembly
**  
*Instance, name=Tube-1, part=Tube
*End Instance
**  
*Nset, nset=InFace, instance=Tube-1, generate
 721,  732,    1
*Elset, elset=InFace, instance=Tube-1, generate
 296,  300,    1
*Nset, nset="Inlet Nodes", instance=Tube-1
 722, 723, 724, 725, 726, 728, 729, 730, 731, 732
*Nset, nset=Symm, instance=Tube-1, generate
   6,  720,    6
*Nset, nset=Wall, instance=Tube-1, generate
   1,  727,    6
*Elset, elset=Wall, instance=Tube-1, generate
   1,  296,    5
*Nset, nset=YSymm, instance=Tube-1, generate
   6,  732,    6
*Elset, elset=YSymm, instance=Tube-1, generate
   5,  300,    5
*Nset, nset=Z-Walls, instance=Tube-1, generate
   1,  732,    1
*Elset, elset=Z-Walls, instance=Tube-1, generate
   1,  300,    1
*Nset, nset=ZSymm, instance=Tube-1
   2,   3,   4,   5,   8,   9,  10,  11,  14,  15,  16,  17,  20,  21,  22,  23
  26,  27,  28,  29,  32,  33,  34,  35,  38,  39,  40,  41,  44,  45,  46,  47
  50,  51,  52,  53,  56,  57,  58,  59,  62,  63,  64,  65,  68,  69,  70,  71
  74,  75,  76,  77,  80,  81,  82,  83,  86,  87,  88,  89,  92,  93,  94,  95
  98,  99, 100, 101, 104, 105, 106, 107, 110, 111, 112, 113, 116, 117, 118, 119
 122, 123, 124, 125, 128, 129, 130, 131, 134, 135, 136, 137, 140, 141, 142, 143
 146, 147, 148, 149, 152, 153, 154, 155, 158, 159, 160, 161, 164, 165, 166, 167
 170, 171, 172, 173, 176, 177, 178, 179, 182, 183, 184, 185, 188, 189, 190, 191
 194, 195, 196, 197, 200, 201, 202, 203, 206, 207, 208, 209, 212, 213, 214, 215
 218, 219, 220, 221, 224, 225, 226, 227, 230, 231, 232, 233, 236, 237, 238, 239
 242, 243, 244, 245, 248, 249, 250, 251, 254, 255, 256, 257, 260, 261, 262, 263
 266, 267, 268, 269, 272, 273, 274, 275, 278, 279, 280, 281, 284, 285, 286, 287
 290, 291, 292, 293, 296, 297, 298, 299, 302, 303, 304, 305, 308, 309, 310, 311
 314, 315, 316, 317, 320, 321, 322, 323, 326, 327, 328, 329, 332, 333, 334, 335
 338, 339, 340, 341, 344, 345, 346, 347, 350, 351, 352, 353, 356, 357, 358, 359
 362, 363, 364, 365, 368, 369, 370, 371, 374, 375, 376, 377, 380, 381, 382, 383
 386, 387, 388, 389, 392, 393, 394, 395, 398, 399, 400, 401, 404, 405, 406, 407
 410, 411, 412, 413, 416, 417, 418, 419, 422, 423, 424, 425, 428, 429, 430, 431
 434, 435, 436, 437, 440, 441, 442, 443, 446, 447, 448, 449, 452, 453, 454, 455
 458, 459, 460, 461, 464, 465, 466, 467, 470, 471, 472, 473, 476, 477, 478, 479
** ... 10 like lines cut
*Nset, nset=_PickedSet11, internal, instance=Tube-1, generate
   1,  732,    1
*Elset, elset=_PickedSet11, internal, instance=Tube-1, generate
   1,  300,    1
*Elset, elset=__PickedSurf15_S1, internal, instance=Tube-1, generate
 296,  300,    1
*Surface, type=ELEMENT, name=_PickedSurf15, internal
__PickedSurf15_S1, S1
*Elset, elset=__PickedSurf16_S2, internal, instance=Tube-1, generate
 1,  5,  1
*Surface, type=ELEMENT, name=_PickedSurf16, internal
__PickedSurf16_S2, S2
*Elset, elset=__PickedSurf17_S2, internal, instance=Tube-1, generate
 1,  5,  1
*Surface, type=ELEMENT, name=_PickedSurf17, internal
__PickedSurf17_S2, S2
*End Assembly
** 
** ELEMENT CONTROLS
** 
*Section Controls, name=EC-1, second order accuracy=YES
1., 1., 1.
*Amplitude, name=SmoothIn, definition=SMOOTH STEP
             0.,              0.,             50.,              1.
** 
** MATERIALS
** 
*Material, name=water
*Density
1000.,
*Eos, type=USER, PROPERTIES=2
15,7.15
*Viscosity
 0.001,
** 
** BOUNDARY CONDITIONS
** 
** Name: Symm Type: Symmetry/Antisymmetry/Encastre
*Boundary
Symm, YSYMM
** Name: ZSymm Type: Symmetry/Antisymmetry/Encastre
*Boundary
ZSymm, ZSYMM
** 
** PREDEFINED FIELDS
** 
** Name: Predefined Field-1   Type: Material assignment
*Initial Conditions, type=VOLUME FRACTION
_PickedSet11, Tube-1.water-1, 1.
** ----------------------------------------------------------------
** 
** STEP: Step-1
** 
*Step, name=Step-1, nlgeom=YES
*Dynamic, Explicit
, 1000.
*Bulk Viscosity
0.06, 1.2
** 
** BOUNDARY CONDITIONS
** 
** Name: EulerIn Type: Eulerian boundary
*Eulerian Boundary, inflow=FREE
_PickedSurf15
** Name: EulerOut Type: Eulerian boundary
*Eulerian Boundary, outflow=FREE
_PickedSurf16
** Name: InletVelocity Type: Velocity/Angular velocity
*Boundary, amplitude=SmoothIn, type=VELOCITY
"Inlet Nodes", 1, 1, 0.01
"Inlet Nodes", 2, 2
"Inlet Nodes", 3, 3
** Name: NoSlip Type: Velocity/Angular velocity
*Boundary, type=VELOCITY
Wall, 1, 1
Wall, 2, 2
Wall, 3, 3
Wall, 4, 4
Wall, 5, 5
Wall, 6, 6
** 
** LOADS
** 
** Name: OutPressure   Type: Pressure
*Dsload
_PickedSurf17, P, 1e-07
** 
** OUTPUT REQUESTS
** 
*Restart, write, number interval=1, time marks=NO
** 
** FIELD OUTPUT: F-Output-1
** 
*Output, field, number interval=50
*Node Output
A, RF, U, V
*Element Output, directions=YES
DENSITY, EVF, LE, PE, PEEQ, PEEQVAVG, PEVAVG, S, SVAVG
*Contact Output
CSTRESS, 
** 
** HISTORY OUTPUT: H-Output-1
** 
*Output, history, variable=PRESELECT
*End Step
