*Heading
** Job name: Radius_0_025 Model name: Model-1
** Generated by: Abaqus/CAE 2023
*Preprint, echo=NO, model=NO, history=NO, contact=NO
**
** PARTS
**
*Part, name=Tube
*Node
      1,           5.,  0.100000001,  0.100000001
      2,           5., 0.0974999964,  0.100000001
      3,           5., 0.0949999988,  0.100000001
      4,           5., 0.0925000012,  0.100000001
      5,           5., 0.0900000036,  0.100000001
      6,           5., 0.0874999985,  0.100000001
      7,           5., 0.0850000009,  0.100000001
      8,           5., 0.0825000033,  0.100000001
      9,           5., 0.0799999982,  0.100000001
     10,           5., 0.0775000006,  0.100000001
     11,           5.,  0.075000003,  0.100000001
     12,           5.,  0.100000001,           0.
     13,           5., 0.0974999964,           0.
     14,           5., 0.0949999988,           0.
     15,           5., 0.0925000012,           0.
     16,           5., 0.0900000036,           0.
     17,           5., 0.0874999985,           0.
     18,           5., 0.0850000009,           0.
     19,           5., 0.0825000033,           0.
     20,           5., 0.0799999982,           0.
** ... 1322 like lines cut
*Element, type=EC3D8R
  1,   23,   24,   35,   34,    1,    2,   13,   12
  2,   24,   25,   36,   35,    2,    3,   14,   13
  3,   25,   26,   37,   36,    3,    4,   15,   14
  4,   26,   27,   38,   37,    4,    5,   16,   15
  5,   27,   28,   39,   38,    5,    6,   17,   16
  6,   28,   29,   40,   39,    6,    7,   18,   17
  7,   29,   30,   41,   40,    7,    8,   19,   18
  8,   30,   31,   42,   41,    8,    9,   20,   19
  9,   31,   32,   43,   42,    9,   10,   21,   20
 10,   32,   33,   44,   43,   10,   11,   22,   21
 11,   45,   46,   57,   56,   23,   24,   35,   34
 12,   46,   47,   58,   57,   24,   25,   36,   35
 13,   47,   48,   59,   58,   25,   26,   37,   36
 14,   48,   49,   60,   59,   26,   27,   38,   37
 15,   49,   50,   61,   60,   27,   28,   39,   38
 16,   50,   51,   62,   61,   28,   29,   40,   39
 17,   51,   52,   63,   62,   29,   30,   41,   40
 18,   52,   53,   64,   63,   30,   31,   42,   41
 19,   53,   54,   65,   64,   31,   32,   43,   42
 20,   54,   55,   66,   65,   32,   33,   44,   43
** ... 580 like lines cut
*Nset, nset=Set-1, generate
    1,  1342,     1
*Elset, elset=Set-1, generate
   1,  600,    1
** Section: Eulerian Section
*Eulerian Section, elset=Set-1, controls=EC-1
Water, water-1
*Surface, type=EULERIAN MATERIAL, name=water-1
water-1
*End Part
**  
**
** ASSEMBLY
**
*Assembly, name=Assembly
**  
*Instance, name=Tube-1, part=Tube
*End Instance
**  
*Nset, nset=InFace, instance=Tube-1, generate
 1321,  1342,     1
*Elset, elset=InFace, instance=Tube-1, generate
 591,  600,    1
*Nset, nset="Inlet Nodes", instance=Tube-1
 1322, 1323, 1324, 1325, 1326, 1327, 1328, 1329, 1330, 1331, 1333, 1334, 1335, 1336, 1337, 1338
 1339, 1340, 1341, 1342
*Nset, nset=Symm, instance=Tube-1, generate
   11,  1320,    11
*Nset, nset=Wall, instance=Tube-1, generate
    1,  1332,    11
*Elset, elset=Wall, instance=Tube-1, generate
   1,  591,   10
*Nset, nset=YSymm, instance=Tube-1, generate
   11,  1342,    11
*Elset, elset=YSymm, instance=Tube-1, generate
  10,  600,   10
*Nset, nset=Z-Walls, instance=Tube-1, generate
    1,  1342,     1
*Elset, elset=Z-Walls, instance=Tube-1, generate
   1,  600,    1
*Nset, nset=ZSymm, instance=Tube-1
    2,    3,    4,    5,    6,    7,    8,    9,   10,   13,   14,   15,   16,   17,   18,   19
   20,   21,   24,   25,   26,   27,   28,   29,   30,   31,   32,   35,   36,   37,   38,   39
   40,   41,   42,   43,   46,   47,   48,   49,   50,   51,   52,   53,   54,   57,   58,   59
   60,   61,   62,   63,   64,   65,   68,   69,   70,   71,   72,   73,   74,   75,   76,   79
   80,   81,   82,   83,   84,   85,   86,   87,   90,   91,   92,   93,   94,   95,   96,   97
   98,  101,  102,  103,  104,  105,  106,  107,  108,  109,  112,  113,  114,  115,  116,  117
  118,  119,  120,  123,  124,  125,  126,  127,  128,  129,  130,  131,  134,  135,  136,  137
  138,  139,  140,  141,  142,  145,  146,  147,  148,  149,  150,  151,  152,  153,  156,  157
  158,  159,  160,  161,  162,  163,  164,  167,  168,  169,  170,  171,  172,  173,  174,  175
  178,  179,  180,  181,  182,  183,  184,  185,  186,  189,  190,  191,  192,  193,  194,  195
  196,  197,  200,  201,  202,  203,  204,  205,  206,  207,  208,  211,  212,  213,  214,  215
  216,  217,  218,  219,  222,  223,  224,  225,  226,  227,  228,  229,  230,  233,  234,  235
  236,  237,  238,  239,  240,  241,  244,  245,  246,  247,  248,  249,  250,  251,  252,  255
  256,  257,  258,  259,  260,  261,  262,  263,  266,  267,  268,  269,  270,  271,  272,  273
  274,  277,  278,  279,  280,  281,  282,  283,  284,  285,  288,  289,  290,  291,  292,  293
  294,  295,  296,  299,  300,  301,  302,  303,  304,  305,  306,  307,  310,  311,  312,  313
  314,  315,  316,  317,  318,  321,  322,  323,  324,  325,  326,  327,  328,  329,  332,  333
  334,  335,  336,  337,  338,  339,  340,  343,  344,  345,  346,  347,  348,  349,  350,  351
  354,  355,  356,  357,  358,  359,  360,  361,  362,  365,  366,  367,  368,  369,  370,  371
  372,  373,  376,  377,  378,  379,  380,  381,  382,  383,  384,  387,  388,  389,  390,  391
** ... 48 like lines cut
*Nset, nset=_PickedSet11, internal, instance=Tube-1, generate
    1,  1342,     1
*Elset, elset=_PickedSet11, internal, instance=Tube-1, generate
   1,  600,    1
*Elset, elset=__PickedSurf15_S1, internal, instance=Tube-1, generate
 591,  600,    1
*Surface, type=ELEMENT, name=_PickedSurf15, internal
__PickedSurf15_S1, S1
*Elset, elset=__PickedSurf16_S2, internal, instance=Tube-1, generate
  1,  10,   1
*Surface, type=ELEMENT, name=_PickedSurf16, internal
__PickedSurf16_S2, S2
*Elset, elset=__PickedSurf17_S2, internal, instance=Tube-1, generate
  1,  10,   1
*Surface, type=ELEMENT, name=_PickedSurf17, internal
__PickedSurf17_S2, S2
*End Assembly
** 
** ELEMENT CONTROLS
** 
*Section Controls, name=EC-1, second order accuracy=YES
1., 1., 1.
*Amplitude, name=SmoothIn, definition=SMOOTH STEP
             0.,              0.,             50.,              1.
** 
** MATERIALS
** 
*Material, name=water
*Density
1000.,
*Eos, type=USER, PROPERTIES=2
15,7.15
*Viscosity
 0.001,
** 
** BOUNDARY CONDITIONS
** 
** Name: Symm Type: Symmetry/Antisymmetry/Encastre
*Boundary
Symm, YSYMM
** Name: ZSymm Type: Symmetry/Antisymmetry/Encastre
*Boundary
ZSymm, ZSYMM
** 
** PREDEFINED FIELDS
** 
** Name: Predefined Field-1   Type: Material assignment
*Initial Conditions, type=VOLUME FRACTION
_PickedSet11, Tube-1.water-1, 1.
** ----------------------------------------------------------------
** 
** STEP: Step-1
** 
*Step, name=Step-1, nlgeom=YES
*Dynamic, Explicit
, 1000.
*Bulk Viscosity
0.06, 1.2
** 
** BOUNDARY CONDITIONS
** 
** Name: EulerIn Type: Eulerian boundary
*Eulerian Boundary, inflow=FREE
_PickedSurf15
** Name: EulerOut Type: Eulerian boundary
*Eulerian Boundary, outflow=FREE
_PickedSurf16
** Name: InletVelocity Type: Velocity/Angular velocity
*Boundary, amplitude=SmoothIn, type=VELOCITY
"Inlet Nodes", 1, 1, 0.01
"Inlet Nodes", 2, 2
"Inlet Nodes", 3, 3
** Name: NoSlip Type: Velocity/Angular velocity
*Boundary, type=VELOCITY
Wall, 1, 1
Wall, 2, 2
Wall, 3, 3
Wall, 4, 4
Wall, 5, 5
Wall, 6, 6
** 
** LOADS
** 
** Name: OutPressure   Type: Pressure
*Dsload
_PickedSurf17, P, 1e-07
** 
** OUTPUT REQUESTS
** 
*Restart, write, number interval=1, time marks=NO
** 
** FIELD OUTPUT: F-Output-1
** 
*Output, field, number interval=50
*Node Output
A, RF, U, V
*Element Output, directions=YES
DENSITY, EVF, LE, PE, PEEQ, PEEQVAVG, PEVAVG, S, SVAVG
*Contact Output
CSTRESS, 
** 
** HISTORY OUTPUT: H-Output-1
** 
*Output, history, variable=PRESELECT
*End Step
